/*---------------------------------------------------------------------------*\
| =========                 |                                                 |
| \\      /  F ield         | OpenFOAM: The Open Source CFD Toolbox           |
|  \\    /   O peration     | Version:  v2012                                 |
|   \\  /    A nd           | Website:  www.openfoam.com                      |
|    \\/     M anipulation  |                                                 |
\*---------------------------------------------------------------------------*/
Build  : _7bdb509494-20201222 OPENFOAM=2012
Arch   : "LSB;label=32;scalar=64"
Exec   : pimpleFoam -case pimple
Date   : May 19 2022
Time   : 21:38:53
Host   : ce-nmehboob-z6
PID    : 18880
I/O    : uncollated
Case   : /mnt/d/openfoam/01-pimple-paraview/pimple
nProcs : 1
trapFpe: Floating point exception trapping enabled (FOAM_SIGFPE).
fileModificationChecking : Monitoring run-time modified files using timeStampMaster (fileModificationSkew 5, maxFileModificationPolls 20)
allowSystemOperations : Allowing user-supplied system call operations

// * * * * * * * * * * * * * * * * * * * * * * * * * * * * * * * * * * * * * //
Create time

Create mesh for time = 0


PIMPLE: max iterations = 70
    field p	: relTol 0, tolerance 0.001
    field U	: relTol 0, tolerance 0.0001
    field s	: relTol 0, tolerance 0.0001

Reading field p

Reading field U

Reading/calculating face flux field phi

Selecting incompressible transport model Newtonian
Selecting turbulence model type laminar
Selecting laminar stress model Stokes
No MRF models present

No finite volume options present
Courant Number mean: 0 max: 0

Starting time loop

--> FOAM Warning :
    From void Foam::timeControl::read(const Foam::dictionary&)
    in file db/functionObjects/timeControl/timeControl.C at line 127
    Reading "/mnt/d/openfoam/01-pimple-paraview/pimple/system/controlDict.functions.massfraction" at line 85 to 98
    Using deprecated 'outputControl'
    Please use 'writeControl' with 'writeInterval'
    This outputControl is deemed to be 54 months old.

--> FOAM IOWarning :
    Found [v1612] 'functionObjectLibs' entry instead of 'libs' in dictionary "/mnt/d/openfoam/01-pimple-paraview/pimple/system/controlDict.functions.massfraction"

    This keyword is deemed to be 48 months old.

--> FOAM Warning :
    From simpleFunctionObject::simpleFunctionObject
    in file simpleFunctionObject/simpleFunctionObject.C at line 135
    'outputControlMode' not found in massfraction
Assuming: timeStep
--> FOAM Warning :
    From timelineFunctionObject::timelineFunctionObject
    in file timelineFunctionObject/timelineFunctionObject.C at line 94
    No entry 'writeStartTime' in "/mnt/d/openfoam/01-pimple-paraview/pimple/system/controlDict.functions.massfraction". Assuming 'no'
surfaceFieldValue surfaceFieldValue1:
    operation     = areaAverage


--> FOAM Warning :
    From void Foam::timeControl::read(const Foam::dictionary&)
    in file db/functionObjects/timeControl/timeControl.C at line 127
    Reading "/mnt/d/openfoam/01-pimple-paraview/pimple/system/controlDict.functions.velocity1" at line 126 to 140
    Using deprecated 'outputControl'
    Please use 'writeControl' with 'writeInterval'
    This outputControl is deemed to be 54 months old.

--> FOAM IOWarning :
    Found [v1612] 'functionObjectLibs' entry instead of 'libs' in dictionary "/mnt/d/openfoam/01-pimple-paraview/pimple/system/controlDict.functions.velocity1"

    This keyword is deemed to be 48 months old.

--> FOAM Warning :
    From simpleFunctionObject::simpleFunctionObject
    in file simpleFunctionObject/simpleFunctionObject.C at line 135
    'outputControlMode' not found in velocity1
Assuming: timeStep
--> FOAM Warning :
    From timelineFunctionObject::timelineFunctionObject
    in file timelineFunctionObject/timelineFunctionObject.C at line 94
    No entry 'writeStartTime' in "/mnt/d/openfoam/01-pimple-paraview/pimple/system/controlDict.functions.velocity1". Assuming 'no'
Courant Number mean: 0 max: 0
deltaT = 1.20005e-06
Time = 1.20005e-06

PIMPLE: iteration 1
DILUPBiCGStab:  Solving for Ux, Initial residual = 0, Final residual = 0, No Iterations 0
DILUPBiCGStab:  Solving for Uy, Initial residual = 1, Final residual = 8.99281e-13, No Iterations 1
DILUPBiCGStab:  Solving for Uz, Initial residual = 0, Final residual = 0, No Iterations 0
GAMG:  Solving for p, Initial residual = 1, Final residual = 0.00901019, No Iterations 8
GAMG:  Solving for p, Initial residual = 0.186306, Final residual = 0.00144152, No Iterations 2
GAMG:  Solving for p, Initial residual = 0.0289351, Final residual = 0.000149837, No Iterations 3
time step continuity errors : sum local = 1.74034e-09, global = -4.02135e-10, cumulative = -4.02135e-10
GAMG:  Solving for p, Initial residual = 0.0106316, Final residual = 4.63886e-05, No Iterations 3
GAMG:  Solving for p, Initial residual = 0.00293771, Final residual = 6.42003e-05, No Iterations 1
GAMG:  Solving for p, Initial residual = 0.000409639, Final residual = 4.14109e-05, No Iterations 1
time step continuity errors : sum local = 5.21953e-10, global = -4.79316e-11, cumulative = -4.50067e-10
GAMG:  Solving for p, Initial residual = 0.000447068, Final residual = 1.83449e-05, No Iterations 1
GAMG:  Solving for p, Initial residual = 0.000161118, Final residual = 1.19919e-05, No Iterations 1
GAMG:  Solving for p, Initial residual = 0.00011191, Final residual = 5.34791e-06, No Iterations 1
time step continuity errors : sum local = 6.76734e-11, global = -1.02567e-11, cumulative = -4.60324e-10
PIMPLE: iteration 2
DILUPBiCGStab:  Solving for Ux, Initial residual = 8.8912e-07, Final residual = 8.8912e-07, No Iterations 0
DILUPBiCGStab:  Solving for Uy, Initial residual = 2.95525e-07, Final residual = 2.95525e-07, No Iterations 0
DILUPBiCGStab:  Solving for Uz, Initial residual = 1.41136e-06, Final residual = 1.41136e-06, No Iterations 0
GAMG:  Solving for p, Initial residual = 4.47359e-05, Final residual = 4.47359e-05, No Iterations 0
GAMG:  Solving for p, Initial residual = 4.47359e-05, Final residual = 4.47359e-05, No Iterations 0
GAMG:  Solving for p, Initial residual = 4.47359e-05, Final residual = 4.47359e-05, No Iterations 0
time step continuity errors : sum local = 5.6627e-10, global = -1.02565e-11, cumulative = -4.7058e-10
GAMG:  Solving for p, Initial residual = 4.47359e-05, Final residual = 4.47359e-05, No Iterations 0
GAMG:  Solving for p, Initial residual = 4.47359e-05, Final residual = 4.47359e-05, No Iterations 0
GAMG:  Solving for p, Initial residual = 4.47359e-05, Final residual = 4.47359e-05, No Iterations 0
time step continuity errors : sum local = 5.6627e-10, global = -1.02565e-11, cumulative = -4.80837e-10
GAMG:  Solving for p, Initial residual = 4.47359e-05, Final residual = 4.47359e-05, No Iterations 0
GAMG:  Solving for p, Initial residual = 4.47359e-05, Final residual = 4.47359e-05, No Iterations 0
GAMG:  Solving for p, Initial residual = 4.47359e-05, Final residual = 4.47359e-05, No Iterations 0
time step continuity errors : sum local = 5.6627e-10, global = -1.02565e-11, cumulative = -4.91093e-10
PIMPLE: iteration 3
DILUPBiCGStab:  Solving for Ux, Initial residual = 3.51357e-10, Final residual = 3.51357e-10, No Iterations 0
DILUPBiCGStab:  Solving for Uy, Initial residual = 4.39131e-10, Final residual = 4.39131e-10, No Iterations 0
DILUPBiCGStab:  Solving for Uz, Initial residual = 3.96612e-10, Final residual = 3.96612e-10, No Iterations 0
GAMG:  Solving for p, Initial residual = 4.47359e-05, Final residual = 4.47359e-05, No Iterations 0
GAMG:  Solving for p, Initial residual = 4.47359e-05, Final residual = 4.47359e-05, No Iterations 0
GAMG:  Solving for p, Initial residual = 4.47359e-05, Final residual = 4.47359e-05, No Iterations 0
time step continuity errors : sum local = 5.6627e-10, global = -1.02565e-11, cumulative = -5.0135e-10
GAMG:  Solving for p, Initial residual = 4.47359e-05, Final residual = 4.47359e-05, No Iterations 0
GAMG:  Solving for p, Initial residual = 4.47359e-05, Final residual = 4.47359e-05, No Iterations 0
GAMG:  Solving for p, Initial residual = 4.47359e-05, Final residual = 4.47359e-05, No Iterations 0
time step continuity errors : sum local = 5.6627e-10, global = -1.02565e-11, cumulative = -5.11606e-10
GAMG:  Solving for p, Initial residual = 4.47359e-05, Final residual = 4.47359e-05, No Iterations 0
GAMG:  Solving for p, Initial residual = 4.47359e-05, Final residual = 4.47359e-05, No Iterations 0
GAMG:  Solving for p, Initial residual = 4.47359e-05, Final residual = 4.47359e-05, No Iterations 0
time step continuity errors : sum local = 5.6627e-10, global = -1.02565e-11, cumulative = -5.21863e-10
PIMPLE: converged in 3 iterations
ExecutionTime = 0.9 s  ClockTime = 3 s

scalarTransport execute: s
smoothSolver:  Solving for s, Initial residual = 1, Final residual = 8.68734e-13, No Iterations 1

scalarTransport execute: s
smoothSolver:  Solving for s, Initial residual = 0.010058, Final residual = 9.4806e-14, No Iterations 1

 Averages of s :  auto2 = 0
surfaceFieldValue surfaceFieldValue1 write:
    total faces   = 260
    total area    = 0.000488691

    areaAverage(auto2) of s = 0

 Averages of U :  auto1 = (0 0.0100024 0)  auto2 = (2.37328e-07 0.00998603 -3.00417e-07)
Courant Number mean: 4.71002e-06 max: 2.67858e-05
deltaT = 1.44013e-06
Time = 2.64017e-06

PIMPLE: iteration 1
DILUPBiCGStab:  Solving for Ux, Initial residual = 0.375003, Final residual = 1.60127e-11, No Iterations 1
DILUPBiCGStab:  Solving for Uy, Initial residual = 0.463818, Final residual = 5.88228e-12, No Iterations 1
DILUPBiCGStab:  Solving for Uz, Initial residual = 0.388428, Final residual = 1.25361e-11, No Iterations 1
GAMG:  Solving for p, Initial residual = 0.0455483, Final residual = 0.000248889, No Iterations 5
GAMG:  Solving for p, Initial residual = 0.566963, Final residual = 0.00467006, No Iterations 2
GAMG:  Solving for p, Initial residual = 0.275744, Final residual = 0.00148575, No Iterations 3
time step continuity errors : sum local = 2.74949e-09, global = 6.19955e-10, cumulative = 9.80921e-11
GAMG:  Solving for p, Initial residual = 0.0949165, Final residual = 0.000420958, No Iterations 3
GAMG:  Solving for p, Initial residual = 0.0229454, Final residual = 0.000106332, No Iterations 3
GAMG:  Solving for p, Initial residual = 0.00580572, Final residual = 8.13041e-05, No Iterations 2
time step continuity errors : sum local = 2.09662e-10, global = 1.61199e-11, cumulative = 1.14212e-10
GAMG:  Solving for p, Initial residual = 0.00158826, Final residual = 4.31851e-05, No Iterations 1
GAMG:  Solving for p, Initial residual = 0.000359271, Final residual = 3.68813e-05, No Iterations 1
GAMG:  Solving for p, Initial residual = 0.000357825, Final residual = 1.48435e-05, No Iterations 1
time step continuity errors : sum local = 3.87928e-11, global = 7.21346e-12, cumulative = 1.21426e-10
PIMPLE: iteration 2
DILUPBiCGStab:  Solving for Ux, Initial residual = 2.02066e-07, Final residual = 2.02066e-07, No Iterations 0
DILUPBiCGStab:  Solving for Uy, Initial residual = 5.03024e-08, Final residual = 5.03024e-08, No Iterations 0
DILUPBiCGStab:  Solving for Uz, Initial residual = 3.12274e-07, Final residual = 3.12274e-07, No Iterations 0
GAMG:  Solving for p, Initial residual = 0.00012978, Final residual = 9.65038e-06, No Iterations 1
GAMG:  Solving for p, Initial residual = 8.69619e-05, Final residual = 8.69619e-05, No Iterations 0
GAMG:  Solving for p, Initial residual = 8.69619e-05, Final residual = 8.69619e-05, No Iterations 0
time step continuity errors : sum local = 2.27561e-10, global = 1.38339e-12, cumulative = 1.22809e-10
GAMG:  Solving for p, Initial residual = 8.6962e-05, Final residual = 8.6962e-05, No Iterations 0
GAMG:  Solving for p, Initial residual = 8.6962e-05, Final residual = 8.6962e-05, No Iterations 0
GAMG:  Solving for p, Initial residual = 8.6962e-05, Final residual = 8.6962e-05, No Iterations 0
time step continuity errors : sum local = 2.27561e-10, global = 1.38335e-12, cumulative = 1.24192e-10
GAMG:  Solving for p, Initial residual = 8.6962e-05, Final residual = 8.6962e-05, No Iterations 0
GAMG:  Solving for p, Initial residual = 8.6962e-05, Final residual = 8.6962e-05, No Iterations 0
GAMG:  Solving for p, Initial residual = 8.6962e-05, Final residual = 8.6962e-05, No Iterations 0
time step continuity errors : sum local = 2.27561e-10, global = 1.38335e-12, cumulative = 1.25576e-10
PIMPLE: iteration 3
DILUPBiCGStab:  Solving for Ux, Initial residual = 1.54063e-10, Final residual = 1.54063e-10, No Iterations 0
DILUPBiCGStab:  Solving for Uy, Initial residual = 1.93264e-10, Final residual = 1.93264e-10, No Iterations 0
DILUPBiCGStab:  Solving for Uz, Initial residual = 1.97175e-10, Final residual = 1.97175e-10, No Iterations 0
GAMG:  Solving for p, Initial residual = 8.6962e-05, Final residual = 8.6962e-05, No Iterations 0
GAMG:  Solving for p, Initial residual = 8.6962e-05, Final residual = 8.6962e-05, No Iterations 0
GAMG:  Solving for p, Initial residual = 8.6962e-05, Final residual = 8.6962e-05, No Iterations 0
time step continuity errors : sum local = 2.27561e-10, global = 1.38335e-12, cumulative = 1.26959e-10
GAMG:  Solving for p, Initial residual = 8.6962e-05, Final residual = 8.6962e-05, No Iterations 0
GAMG:  Solving for p, Initial residual = 8.6962e-05, Final residual = 8.6962e-05, No Iterations 0
GAMG:  Solving for p, Initial residual = 8.6962e-05, Final residual = 8.6962e-05, No Iterations 0
time step continuity errors : sum local = 2.27561e-10, global = 1.38335e-12, cumulative = 1.28342e-10
GAMG:  Solving for p, Initial residual = 8.6962e-05, Final residual = 8.6962e-05, No Iterations 0
GAMG:  Solving for p, Initial residual = 8.6962e-05, Final residual = 8.6962e-05, No Iterations 0
GAMG:  Solving for p, Initial residual = 8.6962e-05, Final residual = 8.6962e-05, No Iterations 0
time step continuity errors : sum local = 2.27561e-10, global = 1.38335e-12, cumulative = 1.29726e-10
PIMPLE: converged in 3 iterations
ExecutionTime = 1.17 s  ClockTime = 3 s

scalarTransport execute: s
smoothSolver:  Solving for s, Initial residual = 0.142616, Final residual = 1.68886e-13, No Iterations 1

scalarTransport execute: s
smoothSolver:  Solving for s, Initial residual = 0.00534308, Final residual = 7.18984e-14, No Iterations 1

 Averages of s :  auto2 = 0
surfaceFieldValue surfaceFieldValue1 write:
    areaAverage(auto2) of s = 0

 Averages of U :  auto1 = (0 0.0100052 0)  auto2 = (2.26003e-07 0.00999309 -1.0682e-07)
Courant Number mean: 5.96679e-06 max: 3.45422e-05
deltaT = 1.72815e-06
Time = 4.36833e-06

PIMPLE: iteration 1
DILUPBiCGStab:  Solving for Ux, Initial residual = 0.0588821, Final residual = 1.4504e-12, No Iterations 1
DILUPBiCGStab:  Solving for Uy, Initial residual = 0.0782061, Final residual = 1.09181e-12, No Iterations 1
DILUPBiCGStab:  Solving for Uz, Initial residual = 0.102886, Final residual = 2.36503e-12, No Iterations 1
GAMG:  Solving for p, Initial residual = 0.322183, Final residual = 0.0017309, No Iterations 3
GAMG:  Solving for p, Initial residual = 0.270673, Final residual = 0.00129258, No Iterations 3
GAMG:  Solving for p, Initial residual = 0.104409, Final residual = 0.000620044, No Iterations 3
time step continuity errors : sum local = 3.82976e-10, global = -3.6569e-12, cumulative = 1.26069e-10
GAMG:  Solving for p, Initial residual = 0.0422741, Final residual = 0.000230085, No Iterations 3
GAMG:  Solving for p, Initial residual = 0.0115995, Final residual = 6.68093e-05, No Iterations 3
GAMG:  Solving for p, Initial residual = 0.00359322, Final residual = 9.02326e-05, No Iterations 1
time step continuity errors : sum local = 4.32907e-11, global = -5.58361e-12, cumulative = 1.20485e-10
GAMG:  Solving for p, Initial residual = 0.000626451, Final residual = 5.39653e-05, No Iterations 1
GAMG:  Solving for p, Initial residual = 0.000599949, Final residual = 2.72848e-05, No Iterations 1
GAMG:  Solving for p, Initial residual = 0.000250044, Final residual = 1.66645e-05, No Iterations 1
time step continuity errors : sum local = 7.99086e-12, global = -8.25884e-13, cumulative = 1.19659e-10
PIMPLE: iteration 2
DILUPBiCGStab:  Solving for Ux, Initial residual = 3.96897e-08, Final residual = 3.96897e-08, No Iterations 0
DILUPBiCGStab:  Solving for Uy, Initial residual = 1.59418e-08, Final residual = 1.59418e-08, No Iterations 0
DILUPBiCGStab:  Solving for Uz, Initial residual = 5.68486e-08, Final residual = 5.68486e-08, No Iterations 0
GAMG:  Solving for p, Initial residual = 0.000157039, Final residual = 7.89941e-06, No Iterations 1
GAMG:  Solving for p, Initial residual = 6.8282e-05, Final residual = 6.8282e-05, No Iterations 0
GAMG:  Solving for p, Initial residual = 6.8282e-05, Final residual = 6.8282e-05, No Iterations 0
time step continuity errors : sum local = 3.27581e-11, global = -4.34202e-13, cumulative = 1.19225e-10
GAMG:  Solving for p, Initial residual = 6.82821e-05, Final residual = 6.82821e-05, No Iterations 0
GAMG:  Solving for p, Initial residual = 6.82821e-05, Final residual = 6.82821e-05, No Iterations 0
GAMG:  Solving for p, Initial residual = 6.82821e-05, Final residual = 6.82821e-05, No Iterations 0
time step continuity errors : sum local = 3.27581e-11, global = -4.34198e-13, cumulative = 1.18791e-10
GAMG:  Solving for p, Initial residual = 6.82821e-05, Final residual = 6.82821e-05, No Iterations 0
GAMG:  Solving for p, Initial residual = 6.82821e-05, Final residual = 6.82821e-05, No Iterations 0
GAMG:  Solving for p, Initial residual = 6.82821e-05, Final residual = 6.82821e-05, No Iterations 0
time step continuity errors : sum local = 3.27581e-11, global = -4.34198e-13, cumulative = 1.18357e-10
PIMPLE: iteration 3
DILUPBiCGStab:  Solving for Ux, Initial residual = 2.38915e-11, Final residual = 2.38915e-11, No Iterations 0
DILUPBiCGStab:  Solving for Uy, Initial residual = 2.78761e-11, Final residual = 2.78761e-11, No Iterations 0
DILUPBiCGStab:  Solving for Uz, Initial residual = 3.29349e-11, Final residual = 3.29349e-11, No Iterations 0
GAMG:  Solving for p, Initial residual = 6.82821e-05, Final residual = 6.82821e-05, No Iterations 0
GAMG:  Solving for p, Initial residual = 6.82821e-05, Final residual = 6.82821e-05, No Iterations 0
GAMG:  Solving for p, Initial residual = 6.82821e-05, Final residual = 6.82821e-05, No Iterations 0
time step continuity errors : sum local = 3.27581e-11, global = -4.34198e-13, cumulative = 1.17922e-10
GAMG:  Solving for p, Initial residual = 6.82821e-05, Final residual = 6.82821e-05, No Iterations 0
GAMG:  Solving for p, Initial residual = 6.82821e-05, Final residual = 6.82821e-05, No Iterations 0
GAMG:  Solving for p, Initial residual = 6.82821e-05, Final residual = 6.82821e-05, No Iterations 0
time step continuity errors : sum local = 3.27581e-11, global = -4.34198e-13, cumulative = 1.17488e-10
GAMG:  Solving for p, Initial residual = 6.82821e-05, Final residual = 6.82821e-05, No Iterations 0
GAMG:  Solving for p, Initial residual = 6.82821e-05, Final residual = 6.82821e-05, No Iterations 0
GAMG:  Solving for p, Initial residual = 6.82821e-05, Final residual = 6.82821e-05, No Iterations 0
time step continuity errors : sum local = 3.27581e-11, global = -4.34198e-13, cumulative = 1.17054e-10
PIMPLE: converged in 3 iterations
ExecutionTime = 1.41 s  ClockTime = 3 s

scalarTransport execute: s
smoothSolver:  Solving for s, Initial residual = 0.083196, Final residual = 1.46827e-13, No Iterations 1

scalarTransport execute: s
smoothSolver:  Solving for s, Initial residual = 0.00384165, Final residual = 7.48557e-14, No Iterations 1

 Averages of s :  auto2 = 0
surfaceFieldValue surfaceFieldValue1 write:
    areaAverage(auto2) of s = 0

 Averages of U :  auto1 = (0 0.0100086 0)  auto2 = (1.24545e-07 0.0099969 -1.22882e-07)
Courant Number mean: 7.13113e-06 max: 4.23974e-05
deltaT = 2.07378e-06
Time = 6.44211e-06

PIMPLE: iteration 1
DILUPBiCGStab:  Solving for Ux, Initial residual = 0.00939639, Final residual = 5.21537e-13, No Iterations 1
DILUPBiCGStab:  Solving for Uy, Initial residual = 0.00506616, Final residual = 2.8043e-13, No Iterations 1
DILUPBiCGStab:  Solving for Uz, Initial residual = 0.014855, Final residual = 7.88207e-13, No Iterations 1
GAMG:  Solving for p, Initial residual = 0.272895, Final residual = 0.000478148, No Iterations 2
GAMG:  Solving for p, Initial residual = 0.0576979, Final residual = 0.000243769, No Iterations 2
GAMG:  Solving for p, Initial residual = 0.0102672, Final residual = 8.43198e-05, No Iterations 2
time step continuity errors : sum local = 3.46822e-11, global = -3.06868e-12, cumulative = 1.13985e-10
GAMG:  Solving for p, Initial residual = 0.0028937, Final residual = 6.18036e-05, No Iterations 1
GAMG:  Solving for p, Initial residual = 0.000693166, Final residual = 3.75787e-05, No Iterations 1
GAMG:  Solving for p, Initial residual = 0.00043312, Final residual = 1.86326e-05, No Iterations 1
time step continuity errors : sum local = 7.68049e-12, global = -1.56326e-12, cumulative = 1.12422e-10
GAMG:  Solving for p, Initial residual = 0.00020192, Final residual = 1.13962e-05, No Iterations 1
GAMG:  Solving for p, Initial residual = 0.000113104, Final residual = 5.92046e-06, No Iterations 1
GAMG:  Solving for p, Initial residual = 5.53e-05, Final residual = 5.53e-05, No Iterations 0
time step continuity errors : sum local = 2.28173e-11, global = -4.02014e-13, cumulative = 1.1202e-10
PIMPLE: iteration 2
DILUPBiCGStab:  Solving for Ux, Initial residual = 2.83355e-08, Final residual = 2.83355e-08, No Iterations 0
DILUPBiCGStab:  Solving for Uy, Initial residual = 1.24773e-08, Final residual = 1.24773e-08, No Iterations 0
DILUPBiCGStab:  Solving for Uz, Initial residual = 4.09909e-08, Final residual = 4.09909e-08, No Iterations 0
GAMG:  Solving for p, Initial residual = 5.53228e-05, Final residual = 5.53228e-05, No Iterations 0
GAMG:  Solving for p, Initial residual = 5.53228e-05, Final residual = 5.53228e-05, No Iterations 0
GAMG:  Solving for p, Initial residual = 5.53228e-05, Final residual = 5.53228e-05, No Iterations 0
time step continuity errors : sum local = 2.28267e-11, global = -4.02164e-13, cumulative = 1.11618e-10
GAMG:  Solving for p, Initial residual = 5.53228e-05, Final residual = 5.53228e-05, No Iterations 0
GAMG:  Solving for p, Initial residual = 5.53228e-05, Final residual = 5.53228e-05, No Iterations 0
GAMG:  Solving for p, Initial residual = 5.53228e-05, Final residual = 5.53228e-05, No Iterations 0
time step continuity errors : sum local = 2.28267e-11, global = -4.02164e-13, cumulative = 1.11216e-10
GAMG:  Solving for p, Initial residual = 5.53228e-05, Final residual = 5.53228e-05, No Iterations 0
GAMG:  Solving for p, Initial residual = 5.53228e-05, Final residual = 5.53228e-05, No Iterations 0
GAMG:  Solving for p, Initial residual = 5.53228e-05, Final residual = 5.53228e-05, No Iterations 0
time step continuity errors : sum local = 2.28267e-11, global = -4.02164e-13, cumulative = 1.10814e-10
PIMPLE: iteration 3
DILUPBiCGStab:  Solving for Ux, Initial residual = 4.41796e-13, Final residual = 4.41796e-13, No Iterations 0
DILUPBiCGStab:  Solving for Uy, Initial residual = 3.26889e-13, Final residual = 3.26889e-13, No Iterations 0
DILUPBiCGStab:  Solving for Uz, Initial residual = 5.22224e-13, Final residual = 5.22224e-13, No Iterations 0
GAMG:  Solving for p, Initial residual = 5.53228e-05, Final residual = 5.53228e-05, No Iterations 0
GAMG:  Solving for p, Initial residual = 5.53228e-05, Final residual = 5.53228e-05, No Iterations 0
GAMG:  Solving for p, Initial residual = 5.53228e-05, Final residual = 5.53228e-05, No Iterations 0
time step continuity errors : sum local = 2.28267e-11, global = -4.02164e-13, cumulative = 1.10411e-10
GAMG:  Solving for p, Initial residual = 5.53228e-05, Final residual = 5.53228e-05, No Iterations 0
GAMG:  Solving for p, Initial residual = 5.53228e-05, Final residual = 5.53228e-05, No Iterations 0
GAMG:  Solving for p, Initial residual = 5.53228e-05, Final residual = 5.53228e-05, No Iterations 0
time step continuity errors : sum local = 2.28267e-11, global = -4.02164e-13, cumulative = 1.10009e-10
GAMG:  Solving for p, Initial residual = 5.53228e-05, Final residual = 5.53228e-05, No Iterations 0
GAMG:  Solving for p, Initial residual = 5.53228e-05, Final residual = 5.53228e-05, No Iterations 0
GAMG:  Solving for p, Initial residual = 5.53228e-05, Final residual = 5.53228e-05, No Iterations 0
time step continuity errors : sum local = 2.28267e-11, global = -4.02164e-13, cumulative = 1.09607e-10
PIMPLE: converged in 3 iterations
ExecutionTime = 1.65 s  ClockTime = 3 s

scalarTransport execute: s
smoothSolver:  Solving for s, Initial residual = 0.0617644, Final residual = 1.60554e-13, No Iterations 1

scalarTransport execute: s
smoothSolver:  Solving for s, Initial residual = 0.00311239, Final residual = 8.76712e-14, No Iterations 1

 Averages of s :  auto2 = 0
surfaceFieldValue surfaceFieldValue1 write:
    areaAverage(auto2) of s = 0

 Averages of U :  auto1 = (0 0.0100127 0)  auto2 = (1.00568e-07 0.0100015 -2.49431e-07)
Courant Number mean: 8.53386e-06 max: 5.14102e-05
deltaT = 2.48844e-06
Time = 8.93055e-06

PIMPLE: iteration 1
DILUPBiCGStab:  Solving for Ux, Initial residual = 0.00600981, Final residual = 4.93434e-13, No Iterations 1
DILUPBiCGStab:  Solving for Uy, Initial residual = 0.00461073, Final residual = 2.85408e-13, No Iterations 1
DILUPBiCGStab:  Solving for Uz, Initial residual = 0.00929132, Final residual = 7.56595e-13, No Iterations 1
GAMG:  Solving for p, Initial residual = 0.173382, Final residual = 0.00046385, No Iterations 2
GAMG:  Solving for p, Initial residual = 0.035664, Final residual = 0.000336908, No Iterations 2
GAMG:  Solving for p, Initial residual = 0.00806927, Final residual = 3.51794e-05, No Iterations 3
time step continuity errors : sum local = 1.46302e-11, global = 1.79347e-12, cumulative = 1.11401e-10
GAMG:  Solving for p, Initial residual = 0.00257742, Final residual = 5.61738e-05, No Iterations 1
GAMG:  Solving for p, Initial residual = 0.000521396, Final residual = 3.02098e-05, No Iterations 1
GAMG:  Solving for p, Initial residual = 0.000377611, Final residual = 1.7079e-05, No Iterations 1
time step continuity errors : sum local = 7.06223e-12, global = 9.56e-13, cumulative = 1.12357e-10
GAMG:  Solving for p, Initial residual = 0.000166592, Final residual = 9.30416e-06, No Iterations 1
GAMG:  Solving for p, Initial residual = 9.37759e-05, Final residual = 9.37759e-05, No Iterations 0
GAMG:  Solving for p, Initial residual = 9.37759e-05, Final residual = 9.37759e-05, No Iterations 0
time step continuity errors : sum local = 3.8755e-11, global = 4.11481e-13, cumulative = 1.12768e-10
PIMPLE: iteration 2
DILUPBiCGStab:  Solving for Ux, Initial residual = 2.5894e-08, Final residual = 2.5894e-08, No Iterations 0
DILUPBiCGStab:  Solving for Uy, Initial residual = 1.16633e-08, Final residual = 1.16633e-08, No Iterations 0
DILUPBiCGStab:  Solving for Uz, Initial residual = 3.62028e-08, Final residual = 3.62028e-08, No Iterations 0
GAMG:  Solving for p, Initial residual = 9.38434e-05, Final residual = 9.38434e-05, No Iterations 0
GAMG:  Solving for p, Initial residual = 9.38434e-05, Final residual = 9.38434e-05, No Iterations 0
GAMG:  Solving for p, Initial residual = 9.38434e-05, Final residual = 9.38434e-05, No Iterations 0
time step continuity errors : sum local = 3.87829e-11, global = 4.11235e-13, cumulative = 1.13179e-10
GAMG:  Solving for p, Initial residual = 9.38434e-05, Final residual = 9.38434e-05, No Iterations 0
GAMG:  Solving for p, Initial residual = 9.38434e-05, Final residual = 9.38434e-05, No Iterations 0
GAMG:  Solving for p, Initial residual = 9.38434e-05, Final residual = 9.38434e-05, No Iterations 0
time step continuity errors : sum local = 3.87829e-11, global = 4.11235e-13, cumulative = 1.13591e-10
GAMG:  Solving for p, Initial residual = 9.38434e-05, Final residual = 9.38434e-05, No Iterations 0
GAMG:  Solving for p, Initial residual = 9.38434e-05, Final residual = 9.38434e-05, No Iterations 0
GAMG:  Solving for p, Initial residual = 9.38434e-05, Final residual = 9.38434e-05, No Iterations 0
time step continuity errors : sum local = 3.87829e-11, global = 4.11235e-13, cumulative = 1.14002e-10
PIMPLE: iteration 3
DILUPBiCGStab:  Solving for Ux, Initial residual = 4.85398e-13, Final residual = 4.85398e-13, No Iterations 0
DILUPBiCGStab:  Solving for Uy, Initial residual = 3.48203e-13, Final residual = 3.48203e-13, No Iterations 0
DILUPBiCGStab:  Solving for Uz, Initial residual = 5.58571e-13, Final residual = 5.58571e-13, No Iterations 0
GAMG:  Solving for p, Initial residual = 9.38434e-05, Final residual = 9.38434e-05, No Iterations 0
GAMG:  Solving for p, Initial residual = 9.38434e-05, Final residual = 9.38434e-05, No Iterations 0
GAMG:  Solving for p, Initial residual = 9.38434e-05, Final residual = 9.38434e-05, No Iterations 0
time step continuity errors : sum local = 3.87829e-11, global = 4.11235e-13, cumulative = 1.14413e-10
GAMG:  Solving for p, Initial residual = 9.38434e-05, Final residual = 9.38434e-05, No Iterations 0
GAMG:  Solving for p, Initial residual = 9.38434e-05, Final residual = 9.38434e-05, No Iterations 0
GAMG:  Solving for p, Initial residual = 9.38434e-05, Final residual = 9.38434e-05, No Iterations 0
time step continuity errors : sum local = 3.87829e-11, global = 4.11235e-13, cumulative = 1.14824e-10
GAMG:  Solving for p, Initial residual = 9.38434e-05, Final residual = 9.38434e-05, No Iterations 0
GAMG:  Solving for p, Initial residual = 9.38434e-05, Final residual = 9.38434e-05, No Iterations 0
GAMG:  Solving for p, Initial residual = 9.38434e-05, Final residual = 9.38434e-05, No Iterations 0
time step continuity errors : sum local = 3.87829e-11, global = 4.11235e-13, cumulative = 1.15235e-10
PIMPLE: converged in 3 iterations
ExecutionTime = 1.91 s  ClockTime = 4 s

scalarTransport execute: s
smoothSolver:  Solving for s, Initial residual = 0.0508548, Final residual = 1.9342e-13, No Iterations 1

scalarTransport execute: s
smoothSolver:  Solving for s, Initial residual = 0.00268688, Final residual = 1.0928e-13, No Iterations 1

 Averages of s :  auto2 = 0
surfaceFieldValue surfaceFieldValue1 write:
    areaAverage(auto2) of s = 0

 Averages of U :  auto1 = (0 0.0100176 0)  auto2 = (7.62396e-08 0.0100069 -2.42908e-07)
Courant Number mean: 1.02219e-05 max: 6.22337e-05
deltaT = 2.98597e-06
Time = 1.19165e-05

PIMPLE: iteration 1
DILUPBiCGStab:  Solving for Ux, Initial residual = 0.00478999, Final residual = 5.39191e-13, No Iterations 1
DILUPBiCGStab:  Solving for Uy, Initial residual = 0.00394613, Final residual = 3.24472e-13, No Iterations 1
DILUPBiCGStab:  Solving for Uz, Initial residual = 0.0073388, Final residual = 8.38077e-13, No Iterations 1
GAMG:  Solving for p, Initial residual = 0.148121, Final residual = 0.000443414, No Iterations 2
GAMG:  Solving for p, Initial residual = 0.0297429, Final residual = 8.79433e-05, No Iterations 3
GAMG:  Solving for p, Initial residual = 0.00756417, Final residual = 8.11834e-05, No Iterations 2
time step continuity errors : sum local = 3.53514e-11, global = 2.59454e-12, cumulative = 1.1783e-10
GAMG:  Solving for p, Initial residual = 0.00158003, Final residual = 4.16284e-05, No Iterations 1
GAMG:  Solving for p, Initial residual = 0.000406429, Final residual = 3.06666e-05, No Iterations 1
GAMG:  Solving for p, Initial residual = 0.000329208, Final residual = 1.42608e-05, No Iterations 1
time step continuity errors : sum local = 6.19686e-12, global = 1.05191e-12, cumulative = 1.18882e-10
GAMG:  Solving for p, Initial residual = 0.000126743, Final residual = 8.2253e-06, No Iterations 1
GAMG:  Solving for p, Initial residual = 7.79388e-05, Final residual = 7.79388e-05, No Iterations 0
GAMG:  Solving for p, Initial residual = 7.79388e-05, Final residual = 7.79388e-05, No Iterations 0
time step continuity errors : sum local = 3.38519e-11, global = 2.28334e-13, cumulative = 1.1911e-10
PIMPLE: iteration 2
DILUPBiCGStab:  Solving for Ux, Initial residual = 2.52749e-08, Final residual = 2.52749e-08, No Iterations 0
DILUPBiCGStab:  Solving for Uy, Initial residual = 1.15697e-08, Final residual = 1.15697e-08, No Iterations 0
DILUPBiCGStab:  Solving for Uz, Initial residual = 3.5244e-08, Final residual = 3.5244e-08, No Iterations 0
GAMG:  Solving for p, Initial residual = 7.80324e-05, Final residual = 7.80324e-05, No Iterations 0
GAMG:  Solving for p, Initial residual = 7.80324e-05, Final residual = 7.80324e-05, No Iterations 0
GAMG:  Solving for p, Initial residual = 7.80324e-05, Final residual = 7.80324e-05, No Iterations 0
time step continuity errors : sum local = 3.38925e-11, global = 2.27981e-13, cumulative = 1.19338e-10
GAMG:  Solving for p, Initial residual = 7.80324e-05, Final residual = 7.80324e-05, No Iterations 0
GAMG:  Solving for p, Initial residual = 7.80324e-05, Final residual = 7.80324e-05, No Iterations 0
GAMG:  Solving for p, Initial residual = 7.80324e-05, Final residual = 7.80324e-05, No Iterations 0
time step continuity errors : sum local = 3.38925e-11, global = 2.27981e-13, cumulative = 1.19566e-10
GAMG:  Solving for p, Initial residual = 7.80324e-05, Final residual = 7.80324e-05, No Iterations 0
GAMG:  Solving for p, Initial residual = 7.80324e-05, Final residual = 7.80324e-05, No Iterations 0
GAMG:  Solving for p, Initial residual = 7.80324e-05, Final residual = 7.80324e-05, No Iterations 0
time step continuity errors : sum local = 3.38925e-11, global = 2.27981e-13, cumulative = 1.19794e-10
PIMPLE: iteration 3
DILUPBiCGStab:  Solving for Ux, Initial residual = 5.77216e-13, Final residual = 5.77216e-13, No Iterations 0
DILUPBiCGStab:  Solving for Uy, Initial residual = 4.08302e-13, Final residual = 4.08302e-13, No Iterations 0
DILUPBiCGStab:  Solving for Uz, Initial residual = 6.55229e-13, Final residual = 6.55229e-13, No Iterations 0
GAMG:  Solving for p, Initial residual = 7.80324e-05, Final residual = 7.80324e-05, No Iterations 0
GAMG:  Solving for p, Initial residual = 7.80324e-05, Final residual = 7.80324e-05, No Iterations 0
GAMG:  Solving for p, Initial residual = 7.80324e-05, Final residual = 7.80324e-05, No Iterations 0
time step continuity errors : sum local = 3.38925e-11, global = 2.27981e-13, cumulative = 1.20022e-10
GAMG:  Solving for p, Initial residual = 7.80324e-05, Final residual = 7.80324e-05, No Iterations 0
GAMG:  Solving for p, Initial residual = 7.80324e-05, Final residual = 7.80324e-05, No Iterations 0
GAMG:  Solving for p, Initial residual = 7.80324e-05, Final residual = 7.80324e-05, No Iterations 0
time step continuity errors : sum local = 3.38925e-11, global = 2.27981e-13, cumulative = 1.2025e-10
GAMG:  Solving for p, Initial residual = 7.80324e-05, Final residual = 7.80324e-05, No Iterations 0
GAMG:  Solving for p, Initial residual = 7.80324e-05, Final residual = 7.80324e-05, No Iterations 0
GAMG:  Solving for p, Initial residual = 7.80324e-05, Final residual = 7.80324e-05, No Iterations 0
time step continuity errors : sum local = 3.38925e-11, global = 2.27981e-13, cumulative = 1.20478e-10
PIMPLE: converged in 3 iterations
ExecutionTime = 2.15 s  ClockTime = 4 s

scalarTransport execute: s
smoothSolver:  Solving for s, Initial residual = 0.0443364, Final residual = 2.46211e-13, No Iterations 1

scalarTransport execute: s
smoothSolver:  Solving for s, Initial residual = 0.00241175, Final residual = 1.416e-13, No Iterations 1

 Averages of s :  auto2 = 0
surfaceFieldValue surfaceFieldValue1 write:
    areaAverage(auto2) of s = 0

 Averages of U :  auto1 = (0 0.0100235 0)  auto2 = (7.59405e-08 0.0100128 -2.46979e-07)
Courant Number mean: 1.22501e-05 max: 7.50304e-05
deltaT = 3.58253e-06
Time = 1.5499e-05

PIMPLE: iteration 1
DILUPBiCGStab:  Solving for Ux, Initial residual = 0.00406532, Final residual = 6.22416e-13, No Iterations 1
DILUPBiCGStab:  Solving for Uy, Initial residual = 0.00344237, Final residual = 3.84444e-13, No Iterations 1
DILUPBiCGStab:  Solving for Uz, Initial residual = 0.00622435, Final residual = 9.76736e-13, No Iterations 1
GAMG:  Solving for p, Initial residual = 0.137521, Final residual = 0.000417751, No Iterations 2
GAMG:  Solving for p, Initial residual = 0.0256762, Final residual = 7.69505e-05, No Iterations 3
GAMG:  Solving for p, Initial residual = 0.00664213, Final residual = 7.31434e-05, No Iterations 2
time step continuity errors : sum local = 3.43019e-11, global = 2.52569e-12, cumulative = 1.23004e-10
GAMG:  Solving for p, Initial residual = 0.00138687, Final residual = 3.64112e-05, No Iterations 1
GAMG:  Solving for p, Initial residual = 0.000344931, Final residual = 2.76035e-05, No Iterations 1
GAMG:  Solving for p, Initial residual = 0.000290813, Final residual = 1.23388e-05, No Iterations 1
time step continuity errors : sum local = 5.77598e-12, global = 1.03145e-12, cumulative = 1.24035e-10
GAMG:  Solving for p, Initial residual = 0.000107368, Final residual = 7.25684e-06, No Iterations 1
GAMG:  Solving for p, Initial residual = 6.8022e-05, Final residual = 6.8022e-05, No Iterations 0
GAMG:  Solving for p, Initial residual = 6.8022e-05, Final residual = 6.8022e-05, No Iterations 0
time step continuity errors : sum local = 3.18293e-11, global = 1.6514e-13, cumulative = 1.242e-10
PIMPLE: iteration 2
DILUPBiCGStab:  Solving for Ux, Initial residual = 2.52759e-08, Final residual = 2.52759e-08, No Iterations 0
DILUPBiCGStab:  Solving for Uy, Initial residual = 1.1895e-08, Final residual = 1.1895e-08, No Iterations 0
DILUPBiCGStab:  Solving for Uz, Initial residual = 3.57427e-08, Final residual = 3.57427e-08, No Iterations 0
GAMG:  Solving for p, Initial residual = 6.81308e-05, Final residual = 6.81308e-05, No Iterations 0
GAMG:  Solving for p, Initial residual = 6.81308e-05, Final residual = 6.81308e-05, No Iterations 0
GAMG:  Solving for p, Initial residual = 6.81308e-05, Final residual = 6.81308e-05, No Iterations 0
time step continuity errors : sum local = 3.18802e-11, global = 1.64655e-13, cumulative = 1.24365e-10
GAMG:  Solving for p, Initial residual = 6.81308e-05, Final residual = 6.81308e-05, No Iterations 0
GAMG:  Solving for p, Initial residual = 6.81308e-05, Final residual = 6.81308e-05, No Iterations 0
GAMG:  Solving for p, Initial residual = 6.81308e-05, Final residual = 6.81308e-05, No Iterations 0
time step continuity errors : sum local = 3.18802e-11, global = 1.64655e-13, cumulative = 1.2453e-10
GAMG:  Solving for p, Initial residual = 6.81308e-05, Final residual = 6.81308e-05, No Iterations 0
GAMG:  Solving for p, Initial residual = 6.81308e-05, Final residual = 6.81308e-05, No Iterations 0
GAMG:  Solving for p, Initial residual = 6.81308e-05, Final residual = 6.81308e-05, No Iterations 0
time step continuity errors : sum local = 3.18802e-11, global = 1.64655e-13, cumulative = 1.24694e-10
PIMPLE: iteration 3
DILUPBiCGStab:  Solving for Ux, Initial residual = 6.98499e-13, Final residual = 6.98499e-13, No Iterations 0
DILUPBiCGStab:  Solving for Uy, Initial residual = 4.86452e-13, Final residual = 4.86452e-13, No Iterations 0
DILUPBiCGStab:  Solving for Uz, Initial residual = 7.91699e-13, Final residual = 7.91699e-13, No Iterations 0
GAMG:  Solving for p, Initial residual = 6.81308e-05, Final residual = 6.81308e-05, No Iterations 0
GAMG:  Solving for p, Initial residual = 6.81308e-05, Final residual = 6.81308e-05, No Iterations 0
GAMG:  Solving for p, Initial residual = 6.81308e-05, Final residual = 6.81308e-05, No Iterations 0
time step continuity errors : sum local = 3.18802e-11, global = 1.64655e-13, cumulative = 1.24859e-10
GAMG:  Solving for p, Initial residual = 6.81308e-05, Final residual = 6.81308e-05, No Iterations 0
GAMG:  Solving for p, Initial residual = 6.81308e-05, Final residual = 6.81308e-05, No Iterations 0
GAMG:  Solving for p, Initial residual = 6.81308e-05, Final residual = 6.81308e-05, No Iterations 0
time step continuity errors : sum local = 3.18802e-11, global = 1.64655e-13, cumulative = 1.25024e-10
GAMG:  Solving for p, Initial residual = 6.81308e-05, Final residual = 6.81308e-05, No Iterations 0
GAMG:  Solving for p, Initial residual = 6.81308e-05, Final residual = 6.81308e-05, No Iterations 0
GAMG:  Solving for p, Initial residual = 6.81308e-05, Final residual = 6.81308e-05, No Iterations 0
time step continuity errors : sum local = 3.18802e-11, global = 1.64655e-13, cumulative = 1.25188e-10
PIMPLE: converged in 3 iterations
ExecutionTime = 2.39 s  ClockTime = 4 s

scalarTransport execute: s
smoothSolver:  Solving for s, Initial residual = 0.0400596, Final residual = 3.24009e-13, No Iterations 1

scalarTransport execute: s
smoothSolver:  Solving for s, Initial residual = 0.00222159, Final residual = 1.88189e-13, No Iterations 1

 Averages of s :  auto2 = 0
surfaceFieldValue surfaceFieldValue1 write:
    areaAverage(auto2) of s = 0

 Averages of U :  auto1 = (0 0.0100306 0)  auto2 = (7.13581e-08 0.0100199 -2.49664e-07)
Courant Number mean: 1.46856e-05 max: 9.04317e-05
deltaT = 4.29811e-06
Time = 1.97972e-05

PIMPLE: iteration 1
DILUPBiCGStab:  Solving for Ux, Initial residual = 0.00354323, Final residual = 7.45852e-13, No Iterations 1
DILUPBiCGStab:  Solving for Uy, Initial residual = 0.00311665, Final residual = 4.75364e-13, No Iterations 1
DILUPBiCGStab:  Solving for Uz, Initial residual = 0.00535298, Final residual = 1.17238e-12, No Iterations 1
GAMG:  Solving for p, Initial residual = 0.127469, Final residual = 0.000397242, No Iterations 2
GAMG:  Solving for p, Initial residual = 0.0238252, Final residual = 7.25085e-05, No Iterations 3
GAMG:  Solving for p, Initial residual = 0.0061311, Final residual = 6.80672e-05, No Iterations 2
time step continuity errors : sum local = 3.50768e-11, global = 2.35417e-12, cumulative = 1.27543e-10
GAMG:  Solving for p, Initial residual = 0.00129157, Final residual = 3.43557e-05, No Iterations 1
GAMG:  Solving for p, Initial residual = 0.000326389, Final residual = 2.55575e-05, No Iterations 1
GAMG:  Solving for p, Initial residual = 0.000273828, Final residual = 1.16179e-05, No Iterations 1
time step continuity errors : sum local = 5.97688e-12, global = 1.03906e-12, cumulative = 1.28582e-10
GAMG:  Solving for p, Initial residual = 0.000101365, Final residual = 6.79417e-06, No Iterations 1
GAMG:  Solving for p, Initial residual = 6.42097e-05, Final residual = 6.42097e-05, No Iterations 0
GAMG:  Solving for p, Initial residual = 6.42097e-05, Final residual = 6.42097e-05, No Iterations 0
time step continuity errors : sum local = 3.30206e-11, global = 1.8843e-13, cumulative = 1.2877e-10
PIMPLE: iteration 2
DILUPBiCGStab:  Solving for Ux, Initial residual = 2.55595e-08, Final residual = 2.55595e-08, No Iterations 0
DILUPBiCGStab:  Solving for Uy, Initial residual = 1.25237e-08, Final residual = 1.25237e-08, No Iterations 0
DILUPBiCGStab:  Solving for Uz, Initial residual = 3.74484e-08, Final residual = 3.74484e-08, No Iterations 0
GAMG:  Solving for p, Initial residual = 6.43332e-05, Final residual = 6.43332e-05, No Iterations 0
GAMG:  Solving for p, Initial residual = 6.43332e-05, Final residual = 6.43332e-05, No Iterations 0
GAMG:  Solving for p, Initial residual = 6.43332e-05, Final residual = 6.43332e-05, No Iterations 0
time step continuity errors : sum local = 3.30841e-11, global = 1.87789e-13, cumulative = 1.28958e-10
GAMG:  Solving for p, Initial residual = 6.43332e-05, Final residual = 6.43332e-05, No Iterations 0
GAMG:  Solving for p, Initial residual = 6.43332e-05, Final residual = 6.43332e-05, No Iterations 0
GAMG:  Solving for p, Initial residual = 6.43332e-05, Final residual = 6.43332e-05, No Iterations 0
time step continuity errors : sum local = 3.30841e-11, global = 1.87789e-13, cumulative = 1.29146e-10
GAMG:  Solving for p, Initial residual = 6.43332e-05, Final residual = 6.43332e-05, No Iterations 0
GAMG:  Solving for p, Initial residual = 6.43332e-05, Final residual = 6.43332e-05, No Iterations 0
GAMG:  Solving for p, Initial residual = 6.43332e-05, Final residual = 6.43332e-05, No Iterations 0
time step continuity errors : sum local = 3.30841e-11, global = 1.87789e-13, cumulative = 1.29333e-10
PIMPLE: iteration 3
DILUPBiCGStab:  Solving for Ux, Initial residual = 8.46754e-13, Final residual = 8.46754e-13, No Iterations 0
DILUPBiCGStab:  Solving for Uy, Initial residual = 5.92991e-13, Final residual = 5.92991e-13, No Iterations 0
DILUPBiCGStab:  Solving for Uz, Initial residual = 9.86141e-13, Final residual = 9.86141e-13, No Iterations 0
GAMG:  Solving for p, Initial residual = 6.43332e-05, Final residual = 6.43332e-05, No Iterations 0
GAMG:  Solving for p, Initial residual = 6.43332e-05, Final residual = 6.43332e-05, No Iterations 0
GAMG:  Solving for p, Initial residual = 6.43332e-05, Final residual = 6.43332e-05, No Iterations 0
time step continuity errors : sum local = 3.30841e-11, global = 1.87789e-13, cumulative = 1.29521e-10
GAMG:  Solving for p, Initial residual = 6.43332e-05, Final residual = 6.43332e-05, No Iterations 0
GAMG:  Solving for p, Initial residual = 6.43332e-05, Final residual = 6.43332e-05, No Iterations 0
GAMG:  Solving for p, Initial residual = 6.43332e-05, Final residual = 6.43332e-05, No Iterations 0
time step continuity errors : sum local = 3.30841e-11, global = 1.87789e-13, cumulative = 1.29709e-10
GAMG:  Solving for p, Initial residual = 6.43332e-05, Final residual = 6.43332e-05, No Iterations 0
GAMG:  Solving for p, Initial residual = 6.43332e-05, Final residual = 6.43332e-05, No Iterations 0
GAMG:  Solving for p, Initial residual = 6.43332e-05, Final residual = 6.43332e-05, No Iterations 0
time step continuity errors : sum local = 3.30841e-11, global = 1.87789e-13, cumulative = 1.29897e-10
PIMPLE: converged in 3 iterations
ExecutionTime = 2.64 s  ClockTime = 4 s

scalarTransport execute: s
smoothSolver:  Solving for s, Initial residual = 0.0370846, Final residual = 4.36499e-13, No Iterations 1

scalarTransport execute: s
smoothSolver:  Solving for s, Initial residual = 0.0020842, Final residual = 2.54698e-13, No Iterations 1

 Averages of s :  auto2 = 0
surfaceFieldValue surfaceFieldValue1 write:
    areaAverage(auto2) of s = 0

 Averages of U :  auto1 = (0 0.0100391 0)  auto2 = (6.82487e-08 0.0100284 -2.51348e-07)
Courant Number mean: 1.76114e-05 max: 0.000108798
deltaT = 5.15773e-06
Time = 2.49549e-05

PIMPLE: iteration 1
DILUPBiCGStab:  Solving for Ux, Initial residual = 0.00317294, Final residual = 9.2306e-13, No Iterations 1
DILUPBiCGStab:  Solving for Uy, Initial residual = 0.00288575, Final residual = 6.05609e-13, No Iterations 1
DILUPBiCGStab:  Solving for Uz, Initial residual = 0.00477492, Final residual = 1.44368e-12, No Iterations 1
GAMG:  Solving for p, Initial residual = 0.122297, Final residual = 0.000379194, No Iterations 2
GAMG:  Solving for p, Initial residual = 0.0216243, Final residual = 6.48587e-05, No Iterations 3
GAMG:  Solving for p, Initial residual = 0.00557652, Final residual = 6.24925e-05, No Iterations 2
time step continuity errors : sum local = 3.57891e-11, global = 2.42555e-12, cumulative = 1.32322e-10
GAMG:  Solving for p, Initial residual = 0.00116452, Final residual = 3.07875e-05, No Iterations 1
GAMG:  Solving for p, Initial residual = 0.000287342, Final residual = 2.34334e-05, No Iterations 1
GAMG:  Solving for p, Initial residual = 0.000248198, Final residual = 1.03594e-05, No Iterations 1
time step continuity errors : sum local = 5.92453e-12, global = 1.07035e-12, cumulative = 1.33393e-10
GAMG:  Solving for p, Initial residual = 8.93157e-05, Final residual = 8.93157e-05, No Iterations 0
GAMG:  Solving for p, Initial residual = 8.93157e-05, Final residual = 8.93157e-05, No Iterations 0
GAMG:  Solving for p, Initial residual = 8.93157e-05, Final residual = 8.93157e-05, No Iterations 0
time step continuity errors : sum local = 5.10719e-11, global = 1.07029e-12, cumulative = 1.34463e-10
PIMPLE: iteration 2
DILUPBiCGStab:  Solving for Ux, Initial residual = 2.6575e-08, Final residual = 2.6575e-08, No Iterations 0
DILUPBiCGStab:  Solving for Uy, Initial residual = 1.34139e-08, Final residual = 1.34139e-08, No Iterations 0
DILUPBiCGStab:  Solving for Uz, Initial residual = 4.00504e-08, Final residual = 4.00504e-08, No Iterations 0
GAMG:  Solving for p, Initial residual = 8.93693e-05, Final residual = 8.93693e-05, No Iterations 0
GAMG:  Solving for p, Initial residual = 8.93693e-05, Final residual = 8.93693e-05, No Iterations 0
GAMG:  Solving for p, Initial residual = 8.93693e-05, Final residual = 8.93693e-05, No Iterations 0
time step continuity errors : sum local = 5.11025e-11, global = 1.06948e-12, cumulative = 1.35532e-10
GAMG:  Solving for p, Initial residual = 8.93693e-05, Final residual = 8.93693e-05, No Iterations 0
GAMG:  Solving for p, Initial residual = 8.93693e-05, Final residual = 8.93693e-05, No Iterations 0
GAMG:  Solving for p, Initial residual = 8.93693e-05, Final residual = 8.93693e-05, No Iterations 0
time step continuity errors : sum local = 5.11025e-11, global = 1.06948e-12, cumulative = 1.36602e-10
GAMG:  Solving for p, Initial residual = 8.93693e-05, Final residual = 8.93693e-05, No Iterations 0
GAMG:  Solving for p, Initial residual = 8.93693e-05, Final residual = 8.93693e-05, No Iterations 0
GAMG:  Solving for p, Initial residual = 8.93693e-05, Final residual = 8.93693e-05, No Iterations 0
time step continuity errors : sum local = 5.11025e-11, global = 1.06948e-12, cumulative = 1.37671e-10
PIMPLE: iteration 3
DILUPBiCGStab:  Solving for Ux, Initial residual = 1.05916e-12, Final residual = 1.05916e-12, No Iterations 0
DILUPBiCGStab:  Solving for Uy, Initial residual = 7.42292e-13, Final residual = 7.42292e-13, No Iterations 0
DILUPBiCGStab:  Solving for Uz, Initial residual = 1.23958e-12, Final residual = 1.23958e-12, No Iterations 0
GAMG:  Solving for p, Initial residual = 8.93693e-05, Final residual = 8.93693e-05, No Iterations 0
GAMG:  Solving for p, Initial residual = 8.93693e-05, Final residual = 8.93693e-05, No Iterations 0
GAMG:  Solving for p, Initial residual = 8.93693e-05, Final residual = 8.93693e-05, No Iterations 0
time step continuity errors : sum local = 5.11025e-11, global = 1.06948e-12, cumulative = 1.38741e-10
GAMG:  Solving for p, Initial residual = 8.93693e-05, Final residual = 8.93693e-05, No Iterations 0
GAMG:  Solving for p, Initial residual = 8.93693e-05, Final residual = 8.93693e-05, No Iterations 0
GAMG:  Solving for p, Initial residual = 8.93693e-05, Final residual = 8.93693e-05, No Iterations 0
time step continuity errors : sum local = 5.11025e-11, global = 1.06948e-12, cumulative = 1.3981e-10
GAMG:  Solving for p, Initial residual = 8.93693e-05, Final residual = 8.93693e-05, No Iterations 0
GAMG:  Solving for p, Initial residual = 8.93693e-05, Final residual = 8.93693e-05, No Iterations 0
GAMG:  Solving for p, Initial residual = 8.93693e-05, Final residual = 8.93693e-05, No Iterations 0
time step continuity errors : sum local = 5.11025e-11, global = 1.06948e-12, cumulative = 1.4088e-10
PIMPLE: converged in 3 iterations
ExecutionTime = 2.88 s  ClockTime = 4 s

scalarTransport execute: s
smoothSolver:  Solving for s, Initial residual = 0.0349379, Final residual = 5.98004e-13, No Iterations 1

scalarTransport execute: s
smoothSolver:  Solving for s, Initial residual = 0.00198203, Final residual = 3.49544e-13, No Iterations 1

 Averages of s :  auto2 = -4.95389e-318
surfaceFieldValue surfaceFieldValue1 write:
    areaAverage(auto2) of s = -4.95389e-318

 Averages of U :  auto1 = (0 0.0100493 0)  auto2 = (6.82392e-08 0.0100387 -2.51633e-07)
Courant Number mean: 2.11321e-05 max: 0.00013094
deltaT = 6.18799e-06
Time = 3.11429e-05

PIMPLE: iteration 1
DILUPBiCGStab:  Solving for Ux, Initial residual = 0.00286914, Final residual = 1.17829e-12, No Iterations 1
DILUPBiCGStab:  Solving for Uy, Initial residual = 0.00275486, Final residual = 7.95686e-13, No Iterations 1
DILUPBiCGStab:  Solving for Uz, Initial residual = 0.00428587, Final residual = 1.80983e-12, No Iterations 1
GAMG:  Solving for p, Initial residual = 0.11533, Final residual = 0.000362267, No Iterations 2
GAMG:  Solving for p, Initial residual = 0.0206712, Final residual = 6.30521e-05, No Iterations 3
GAMG:  Solving for p, Initial residual = 0.00533188, Final residual = 5.93049e-05, No Iterations 2
time step continuity errors : sum local = 3.82911e-11, global = 2.35372e-12, cumulative = 1.43234e-10
GAMG:  Solving for p, Initial residual = 0.00111898, Final residual = 2.99516e-05, No Iterations 1
GAMG:  Solving for p, Initial residual = 0.000284467, Final residual = 2.2129e-05, No Iterations 1
GAMG:  Solving for p, Initial residual = 0.000238609, Final residual = 1.00716e-05, No Iterations 1
time step continuity errors : sum local = 6.49405e-12, global = 1.12524e-12, cumulative = 1.44359e-10
GAMG:  Solving for p, Initial residual = 8.81015e-05, Final residual = 8.81015e-05, No Iterations 0
GAMG:  Solving for p, Initial residual = 8.81015e-05, Final residual = 8.81015e-05, No Iterations 0
GAMG:  Solving for p, Initial residual = 8.81015e-05, Final residual = 8.81015e-05, No Iterations 0
time step continuity errors : sum local = 5.67985e-11, global = 1.12517e-12, cumulative = 1.45484e-10
PIMPLE: iteration 2
DILUPBiCGStab:  Solving for Ux, Initial residual = 2.8421e-08, Final residual = 2.8421e-08, No Iterations 0
DILUPBiCGStab:  Solving for Uy, Initial residual = 1.45582e-08, Final residual = 1.45582e-08, No Iterations 0
DILUPBiCGStab:  Solving for Uz, Initial residual = 4.2707e-08, Final residual = 4.2707e-08, No Iterations 0
GAMG:  Solving for p, Initial residual = 8.81529e-05, Final residual = 8.81529e-05, No Iterations 0
GAMG:  Solving for p, Initial residual = 8.81529e-05, Final residual = 8.81529e-05, No Iterations 0
GAMG:  Solving for p, Initial residual = 8.81529e-05, Final residual = 8.81529e-05, No Iterations 0
time step continuity errors : sum local = 5.68316e-11, global = 1.12411e-12, cumulative = 1.46608e-10
GAMG:  Solving for p, Initial residual = 8.81529e-05, Final residual = 8.81529e-05, No Iterations 0
GAMG:  Solving for p, Initial residual = 8.81529e-05, Final residual = 8.81529e-05, No Iterations 0
GAMG:  Solving for p, Initial residual = 8.81529e-05, Final residual = 8.81529e-05, No Iterations 0
time step continuity errors : sum local = 5.68316e-11, global = 1.12411e-12, cumulative = 1.47732e-10
GAMG:  Solving for p, Initial residual = 8.81529e-05, Final residual = 8.81529e-05, No Iterations 0
GAMG:  Solving for p, Initial residual = 8.81529e-05, Final residual = 8.81529e-05, No Iterations 0
GAMG:  Solving for p, Initial residual = 8.81529e-05, Final residual = 8.81529e-05, No Iterations 0
time step continuity errors : sum local = 5.68316e-11, global = 1.12411e-12, cumulative = 1.48856e-10
PIMPLE: iteration 3
DILUPBiCGStab:  Solving for Ux, Initial residual = 1.34714e-12, Final residual = 1.34714e-12, No Iterations 0
DILUPBiCGStab:  Solving for Uy, Initial residual = 9.41991e-13, Final residual = 9.41991e-13, No Iterations 0
DILUPBiCGStab:  Solving for Uz, Initial residual = 1.54925e-12, Final residual = 1.54925e-12, No Iterations 0
GAMG:  Solving for p, Initial residual = 8.81529e-05, Final residual = 8.81529e-05, No Iterations 0
GAMG:  Solving for p, Initial residual = 8.81529e-05, Final residual = 8.81529e-05, No Iterations 0
GAMG:  Solving for p, Initial residual = 8.81529e-05, Final residual = 8.81529e-05, No Iterations 0
time step continuity errors : sum local = 5.68316e-11, global = 1.12411e-12, cumulative = 1.4998e-10
GAMG:  Solving for p, Initial residual = 8.81529e-05, Final residual = 8.81529e-05, No Iterations 0
GAMG:  Solving for p, Initial residual = 8.81529e-05, Final residual = 8.81529e-05, No Iterations 0
GAMG:  Solving for p, Initial residual = 8.81529e-05, Final residual = 8.81529e-05, No Iterations 0
time step continuity errors : sum local = 5.68316e-11, global = 1.12411e-12, cumulative = 1.51105e-10
GAMG:  Solving for p, Initial residual = 8.81529e-05, Final residual = 8.81529e-05, No Iterations 0
GAMG:  Solving for p, Initial residual = 8.81529e-05, Final residual = 8.81529e-05, No Iterations 0
GAMG:  Solving for p, Initial residual = 8.81529e-05, Final residual = 8.81529e-05, No Iterations 0
time step continuity errors : sum local = 5.68316e-11, global = 1.12411e-12, cumulative = 1.52229e-10
PIMPLE: converged in 3 iterations
ExecutionTime = 3.14 s  ClockTime = 5 s

scalarTransport execute: s
smoothSolver:  Solving for s, Initial residual = 0.0333319, Final residual = 8.28789e-13, No Iterations 1

scalarTransport execute: s
smoothSolver:  Solving for s, Initial residual = 0.00190352, Final residual = 4.84255e-13, No Iterations 1

 Averages of s :  auto2 = -9.49214e-306
surfaceFieldValue surfaceFieldValue1 write:
    areaAverage(auto2) of s = -9.49214e-306

 Averages of U :  auto1 = (0 0.0100615 0)  auto2 = (6.61085e-08 0.0100509 -2.52608e-07)
Courant Number mean: 2.53594e-05 max: 0.000157417
deltaT = 7.42283e-06
Time = 3.85657e-05

PIMPLE: iteration 1
DILUPBiCGStab:  Solving for Ux, Initial residual = 0.00265704, Final residual = 1.56182e-12, No Iterations 1
DILUPBiCGStab:  Solving for Uy, Initial residual = 0.0026814, Final residual = 1.07144e-12, No Iterations 1
DILUPBiCGStab:  Solving for Uz, Initial residual = 0.00392203, Final residual = 2.32017e-12, No Iterations 1
GAMG:  Solving for p, Initial residual = 0.111496, Final residual = 0.000347842, No Iterations 2
GAMG:  Solving for p, Initial residual = 0.0190159, Final residual = 5.70812e-05, No Iterations 3
GAMG:  Solving for p, Initial residual = 0.00486125, Final residual = 9.58077e-05, No Iterations 1
time step continuity errors : sum local = 7.03436e-11, global = 1.03251e-11, cumulative = 1.62554e-10
GAMG:  Solving for p, Initial residual = 0.000604276, Final residual = 5.72886e-05, No Iterations 1
GAMG:  Solving for p, Initial residual = 0.000640901, Final residual = 2.4598e-05, No Iterations 1
GAMG:  Solving for p, Initial residual = 0.000215294, Final residual = 1.62815e-05, No Iterations 1
time step continuity errors : sum local = 1.19461e-11, global = 8.10419e-13, cumulative = 1.63364e-10
GAMG:  Solving for p, Initial residual = 0.000155467, Final residual = 7.20262e-06, No Iterations 1
GAMG:  Solving for p, Initial residual = 5.99729e-05, Final residual = 5.99729e-05, No Iterations 0
GAMG:  Solving for p, Initial residual = 5.99729e-05, Final residual = 5.99729e-05, No Iterations 0
time step continuity errors : sum local = 4.39764e-11, global = 8.09374e-13, cumulative = 1.64174e-10
PIMPLE: iteration 2
DILUPBiCGStab:  Solving for Ux, Initial residual = 3.05691e-08, Final residual = 3.05691e-08, No Iterations 0
DILUPBiCGStab:  Solving for Uy, Initial residual = 1.59198e-08, Final residual = 1.59198e-08, No Iterations 0
DILUPBiCGStab:  Solving for Uz, Initial residual = 4.62708e-08, Final residual = 4.62708e-08, No Iterations 0
GAMG:  Solving for p, Initial residual = 6.00823e-05, Final residual = 6.00823e-05, No Iterations 0
GAMG:  Solving for p, Initial residual = 6.00823e-05, Final residual = 6.00823e-05, No Iterations 0
GAMG:  Solving for p, Initial residual = 6.00823e-05, Final residual = 6.00823e-05, No Iterations 0
time step continuity errors : sum local = 4.40567e-11, global = 8.0802e-13, cumulative = 1.64982e-10
GAMG:  Solving for p, Initial residual = 6.00823e-05, Final residual = 6.00823e-05, No Iterations 0
GAMG:  Solving for p, Initial residual = 6.00823e-05, Final residual = 6.00823e-05, No Iterations 0
GAMG:  Solving for p, Initial residual = 6.00823e-05, Final residual = 6.00823e-05, No Iterations 0
time step continuity errors : sum local = 4.40567e-11, global = 8.0802e-13, cumulative = 1.6579e-10
GAMG:  Solving for p, Initial residual = 6.00823e-05, Final residual = 6.00823e-05, No Iterations 0
GAMG:  Solving for p, Initial residual = 6.00823e-05, Final residual = 6.00823e-05, No Iterations 0
GAMG:  Solving for p, Initial residual = 6.00823e-05, Final residual = 6.00823e-05, No Iterations 0
time step continuity errors : sum local = 4.40567e-11, global = 8.0802e-13, cumulative = 1.66598e-10
PIMPLE: iteration 3
DILUPBiCGStab:  Solving for Ux, Initial residual = 1.7098e-12, Final residual = 1.7098e-12, No Iterations 0
DILUPBiCGStab:  Solving for Uy, Initial residual = 1.19883e-12, Final residual = 1.19883e-12, No Iterations 0
DILUPBiCGStab:  Solving for Uz, Initial residual = 1.99186e-12, Final residual = 1.99186e-12, No Iterations 0
GAMG:  Solving for p, Initial residual = 6.00823e-05, Final residual = 6.00823e-05, No Iterations 0
GAMG:  Solving for p, Initial residual = 6.00823e-05, Final residual = 6.00823e-05, No Iterations 0
GAMG:  Solving for p, Initial residual = 6.00823e-05, Final residual = 6.00823e-05, No Iterations 0
time step continuity errors : sum local = 4.40567e-11, global = 8.0802e-13, cumulative = 1.67406e-10
GAMG:  Solving for p, Initial residual = 6.00823e-05, Final residual = 6.00823e-05, No Iterations 0
GAMG:  Solving for p, Initial residual = 6.00823e-05, Final residual = 6.00823e-05, No Iterations 0
GAMG:  Solving for p, Initial residual = 6.00823e-05, Final residual = 6.00823e-05, No Iterations 0
time step continuity errors : sum local = 4.40567e-11, global = 8.0802e-13, cumulative = 1.68214e-10
GAMG:  Solving for p, Initial residual = 6.00823e-05, Final residual = 6.00823e-05, No Iterations 0
GAMG:  Solving for p, Initial residual = 6.00823e-05, Final residual = 6.00823e-05, No Iterations 0
GAMG:  Solving for p, Initial residual = 6.00823e-05, Final residual = 6.00823e-05, No Iterations 0
time step continuity errors : sum local = 4.40567e-11, global = 8.0802e-13, cumulative = 1.69022e-10
PIMPLE: converged in 3 iterations
ExecutionTime = 3.39 s  ClockTime = 5 s

scalarTransport execute: s
smoothSolver:  Solving for s, Initial residual = 0.0321061, Final residual = 1.15928e-12, No Iterations 1

scalarTransport execute: s
smoothSolver:  Solving for s, Initial residual = 0.001842, Final residual = 6.75836e-13, No Iterations 1

 Averages of s :  auto2 = -3.82895e-294
surfaceFieldValue surfaceFieldValue1 write:
    areaAverage(auto2) of s = -3.82895e-294

 Averages of U :  auto1 = (0 0.0100761 0)  auto2 = (6.48415e-08 0.0100654 -2.5347e-07)
Courant Number mean: 3.04377e-05 max: 0.000189289
deltaT = 8.91005e-06
Time = 4.74757e-05

PIMPLE: iteration 1
DILUPBiCGStab:  Solving for Ux, Initial residual = 0.00248718, Final residual = 2.17132e-12, No Iterations 1
DILUPBiCGStab:  Solving for Uy, Initial residual = 0.00268562, Final residual = 1.49145e-12, No Iterations 1
DILUPBiCGStab:  Solving for Uz, Initial residual = 0.00361984, Final residual = 3.0504e-12, No Iterations 1
GAMG:  Solving for p, Initial residual = 0.106064, Final residual = 0.000327869, No Iterations 2
GAMG:  Solving for p, Initial residual = 0.0180185, Final residual = 5.49483e-05, No Iterations 3
GAMG:  Solving for p, Initial residual = 0.00461273, Final residual = 8.94643e-05, No Iterations 1
time step continuity errors : sum local = 7.57061e-11, global = 1.14448e-11, cumulative = 1.80466e-10
GAMG:  Solving for p, Initial residual = 0.000582638, Final residual = 5.42979e-05, No Iterations 1
GAMG:  Solving for p, Initial residual = 0.000601364, Final residual = 2.28293e-05, No Iterations 1
GAMG:  Solving for p, Initial residual = 0.000199678, Final residual = 1.53824e-05, No Iterations 1
time step continuity errors : sum local = 1.30082e-11, global = 7.9723e-13, cumulative = 1.81264e-10
GAMG:  Solving for p, Initial residual = 0.00014585, Final residual = 6.73478e-06, No Iterations 1
GAMG:  Solving for p, Initial residual = 5.57542e-05, Final residual = 5.57542e-05, No Iterations 0
GAMG:  Solving for p, Initial residual = 5.57542e-05, Final residual = 5.57542e-05, No Iterations 0
time step continuity errors : sum local = 4.71208e-11, global = 9.18411e-13, cumulative = 1.82182e-10
PIMPLE: iteration 2
DILUPBiCGStab:  Solving for Ux, Initial residual = 3.34398e-08, Final residual = 3.34398e-08, No Iterations 0
DILUPBiCGStab:  Solving for Uy, Initial residual = 1.76781e-08, Final residual = 1.76781e-08, No Iterations 0
DILUPBiCGStab:  Solving for Uz, Initial residual = 5.11125e-08, Final residual = 5.11125e-08, No Iterations 0
GAMG:  Solving for p, Initial residual = 5.5889e-05, Final residual = 5.5889e-05, No Iterations 0
GAMG:  Solving for p, Initial residual = 5.5889e-05, Final residual = 5.5889e-05, No Iterations 0
GAMG:  Solving for p, Initial residual = 5.5889e-05, Final residual = 5.5889e-05, No Iterations 0
time step continuity errors : sum local = 4.72346e-11, global = 9.16679e-13, cumulative = 1.83099e-10
GAMG:  Solving for p, Initial residual = 5.5889e-05, Final residual = 5.5889e-05, No Iterations 0
GAMG:  Solving for p, Initial residual = 5.5889e-05, Final residual = 5.5889e-05, No Iterations 0
GAMG:  Solving for p, Initial residual = 5.5889e-05, Final residual = 5.5889e-05, No Iterations 0
time step continuity errors : sum local = 4.72346e-11, global = 9.16679e-13, cumulative = 1.84015e-10
GAMG:  Solving for p, Initial residual = 5.5889e-05, Final residual = 5.5889e-05, No Iterations 0
GAMG:  Solving for p, Initial residual = 5.5889e-05, Final residual = 5.5889e-05, No Iterations 0
GAMG:  Solving for p, Initial residual = 5.5889e-05, Final residual = 5.5889e-05, No Iterations 0
time step continuity errors : sum local = 4.72346e-11, global = 9.16679e-13, cumulative = 1.84932e-10
PIMPLE: iteration 3
DILUPBiCGStab:  Solving for Ux, Initial residual = 2.22556e-12, Final residual = 2.22556e-12, No Iterations 0
DILUPBiCGStab:  Solving for Uy, Initial residual = 1.55846e-12, Final residual = 1.55846e-12, No Iterations 0
DILUPBiCGStab:  Solving for Uz, Initial residual = 2.59394e-12, Final residual = 2.59394e-12, No Iterations 0
GAMG:  Solving for p, Initial residual = 5.5889e-05, Final residual = 5.5889e-05, No Iterations 0
GAMG:  Solving for p, Initial residual = 5.5889e-05, Final residual = 5.5889e-05, No Iterations 0
GAMG:  Solving for p, Initial residual = 5.5889e-05, Final residual = 5.5889e-05, No Iterations 0
time step continuity errors : sum local = 4.72346e-11, global = 9.16679e-13, cumulative = 1.85849e-10
GAMG:  Solving for p, Initial residual = 5.5889e-05, Final residual = 5.5889e-05, No Iterations 0
GAMG:  Solving for p, Initial residual = 5.5889e-05, Final residual = 5.5889e-05, No Iterations 0
GAMG:  Solving for p, Initial residual = 5.5889e-05, Final residual = 5.5889e-05, No Iterations 0
time step continuity errors : sum local = 4.72346e-11, global = 9.16679e-13, cumulative = 1.86765e-10
GAMG:  Solving for p, Initial residual = 5.5889e-05, Final residual = 5.5889e-05, No Iterations 0
GAMG:  Solving for p, Initial residual = 5.5889e-05, Final residual = 5.5889e-05, No Iterations 0
GAMG:  Solving for p, Initial residual = 5.5889e-05, Final residual = 5.5889e-05, No Iterations 0
time step continuity errors : sum local = 4.72346e-11, global = 9.16679e-13, cumulative = 1.87682e-10
PIMPLE: converged in 3 iterations
ExecutionTime = 3.62 s  ClockTime = 5 s

scalarTransport execute: s
smoothSolver:  Solving for s, Initial residual = 0.031182, Final residual = 1.63726e-12, No Iterations 1

scalarTransport execute: s
smoothSolver:  Solving for s, Initial residual = 0.00179416, Final residual = 9.50813e-13, No Iterations 1

 Averages of s :  auto2 = -3.58786e-283
surfaceFieldValue surfaceFieldValue1 write:
    areaAverage(auto2) of s = -3.58786e-283

 Averages of U :  auto1 = (0 0.0100937 0)  auto2 = (6.53151e-08 0.010083 -2.54225e-07)
Courant Number mean: 3.65707e-05 max: 0.000227639
deltaT = 1.06901e-05
Time = 5.81659e-05

PIMPLE: iteration 1
DILUPBiCGStab:  Solving for Ux, Initial residual = 0.00237951, Final residual = 3.18471e-12, No Iterations 1
DILUPBiCGStab:  Solving for Uy, Initial residual = 0.00275505, Final residual = 2.13525e-12, No Iterations 1
DILUPBiCGStab:  Solving for Uz, Initial residual = 0.00340562, Final residual = 4.11807e-12, No Iterations 1
GAMG:  Solving for p, Initial residual = 0.101461, Final residual = 0.000310649, No Iterations 2
GAMG:  Solving for p, Initial residual = 0.0166216, Final residual = 5.068e-05, No Iterations 3
GAMG:  Solving for p, Initial residual = 0.00426708, Final residual = 8.25142e-05, No Iterations 1
time step continuity errors : sum local = 8.11888e-11, global = 1.2253e-11, cumulative = 1.99935e-10
GAMG:  Solving for p, Initial residual = 0.000547374, Final residual = 5.02933e-05, No Iterations 1
GAMG:  Solving for p, Initial residual = 0.000556499, Final residual = 2.09426e-05, No Iterations 1
GAMG:  Solving for p, Initial residual = 0.000183687, Final residual = 1.42186e-05, No Iterations 1
time step continuity errors : sum local = 1.3982e-11, global = 8.27769e-13, cumulative = 2.00763e-10
GAMG:  Solving for p, Initial residual = 0.000135026, Final residual = 6.19176e-06, No Iterations 1
GAMG:  Solving for p, Initial residual = 5.13672e-05, Final residual = 5.13672e-05, No Iterations 0
GAMG:  Solving for p, Initial residual = 5.13672e-05, Final residual = 5.13672e-05, No Iterations 0
time step continuity errors : sum local = 5.04845e-11, global = 9.98396e-13, cumulative = 2.01761e-10
PIMPLE: iteration 2
DILUPBiCGStab:  Solving for Ux, Initial residual = 3.73661e-08, Final residual = 3.73661e-08, No Iterations 0
DILUPBiCGStab:  Solving for Uy, Initial residual = 2.0089e-08, Final residual = 2.0089e-08, No Iterations 0
DILUPBiCGStab:  Solving for Uz, Initial residual = 5.74894e-08, Final residual = 5.74894e-08, No Iterations 0
GAMG:  Solving for p, Initial residual = 5.15239e-05, Final residual = 5.15239e-05, No Iterations 0
GAMG:  Solving for p, Initial residual = 5.15239e-05, Final residual = 5.15239e-05, No Iterations 0
GAMG:  Solving for p, Initial residual = 5.15239e-05, Final residual = 5.15239e-05, No Iterations 0
time step continuity errors : sum local = 5.06385e-11, global = 9.96125e-13, cumulative = 2.02757e-10
GAMG:  Solving for p, Initial residual = 5.15239e-05, Final residual = 5.15239e-05, No Iterations 0
GAMG:  Solving for p, Initial residual = 5.15239e-05, Final residual = 5.15239e-05, No Iterations 0
GAMG:  Solving for p, Initial residual = 5.15239e-05, Final residual = 5.15239e-05, No Iterations 0
time step continuity errors : sum local = 5.06385e-11, global = 9.96125e-13, cumulative = 2.03754e-10
GAMG:  Solving for p, Initial residual = 5.15239e-05, Final residual = 5.15239e-05, No Iterations 0
GAMG:  Solving for p, Initial residual = 5.15239e-05, Final residual = 5.15239e-05, No Iterations 0
GAMG:  Solving for p, Initial residual = 5.15239e-05, Final residual = 5.15239e-05, No Iterations 0
time step continuity errors : sum local = 5.06385e-11, global = 9.96125e-13, cumulative = 2.0475e-10
PIMPLE: iteration 3
DILUPBiCGStab:  Solving for Ux, Initial residual = 2.88539e-12, Final residual = 2.88539e-12, No Iterations 0
DILUPBiCGStab:  Solving for Uy, Initial residual = 2.02686e-12, Final residual = 2.02686e-12, No Iterations 0
DILUPBiCGStab:  Solving for Uz, Initial residual = 3.41712e-12, Final residual = 3.41712e-12, No Iterations 0
GAMG:  Solving for p, Initial residual = 5.15239e-05, Final residual = 5.15239e-05, No Iterations 0
GAMG:  Solving for p, Initial residual = 5.15239e-05, Final residual = 5.15239e-05, No Iterations 0
GAMG:  Solving for p, Initial residual = 5.15239e-05, Final residual = 5.15239e-05, No Iterations 0
time step continuity errors : sum local = 5.06385e-11, global = 9.96125e-13, cumulative = 2.05746e-10
GAMG:  Solving for p, Initial residual = 5.15239e-05, Final residual = 5.15239e-05, No Iterations 0
GAMG:  Solving for p, Initial residual = 5.15239e-05, Final residual = 5.15239e-05, No Iterations 0
GAMG:  Solving for p, Initial residual = 5.15239e-05, Final residual = 5.15239e-05, No Iterations 0
time step continuity errors : sum local = 5.06385e-11, global = 9.96125e-13, cumulative = 2.06742e-10
GAMG:  Solving for p, Initial residual = 5.15239e-05, Final residual = 5.15239e-05, No Iterations 0
GAMG:  Solving for p, Initial residual = 5.15239e-05, Final residual = 5.15239e-05, No Iterations 0
GAMG:  Solving for p, Initial residual = 5.15239e-05, Final residual = 5.15239e-05, No Iterations 0
time step continuity errors : sum local = 5.06385e-11, global = 9.96125e-13, cumulative = 2.07738e-10
PIMPLE: converged in 3 iterations
ExecutionTime = 3.82 s  ClockTime = 5 s

scalarTransport execute: s
smoothSolver:  Solving for s, Initial residual = 0.0304497, Final residual = 2.32291e-12, No Iterations 1

scalarTransport execute: s
smoothSolver:  Solving for s, Initial residual = 0.00175489, Final residual = 1.34225e-12, No Iterations 1

 Averages of s :  auto2 = -7.96264e-273
surfaceFieldValue surfaceFieldValue1 write:
    areaAverage(auto2) of s = -7.96264e-273

 Averages of U :  auto1 = (0 0.0101148 0)  auto2 = (6.79392e-08 0.010104 -2.55281e-07)
Courant Number mean: 4.3936e-05 max: 0.000273784
deltaT = 1.28282e-05
Time = 7.09941e-05

PIMPLE: iteration 1
DILUPBiCGStab:  Solving for Ux, Initial residual = 0.00233347, Final residual = 4.93845e-12, No Iterations 1
DILUPBiCGStab:  Solving for Uy, Initial residual = 0.00290653, Final residual = 3.16318e-12, No Iterations 1
DILUPBiCGStab:  Solving for Uz, Initial residual = 0.00324396, Final residual = 5.77778e-12, No Iterations 1
GAMG:  Solving for p, Initial residual = 0.0963102, Final residual = 0.000295291, No Iterations 2
GAMG:  Solving for p, Initial residual = 0.015502, Final residual = 4.75442e-05, No Iterations 3
GAMG:  Solving for p, Initial residual = 0.0039856, Final residual = 7.72368e-05, No Iterations 1
time step continuity errors : sum local = 8.93818e-11, global = 1.35072e-11, cumulative = 2.21245e-10
GAMG:  Solving for p, Initial residual = 0.000513514, Final residual = 4.70815e-05, No Iterations 1
GAMG:  Solving for p, Initial residual = 0.0005207, Final residual = 1.95541e-05, No Iterations 1
GAMG:  Solving for p, Initial residual = 0.000171011, Final residual = 1.33101e-05, No Iterations 1
time step continuity errors : sum local = 1.53939e-11, global = 8.89166e-13, cumulative = 2.22134e-10
GAMG:  Solving for p, Initial residual = 0.000126373, Final residual = 5.78356e-06, No Iterations 1
GAMG:  Solving for p, Initial residual = 4.78606e-05, Final residual = 4.78606e-05, No Iterations 0
GAMG:  Solving for p, Initial residual = 4.78606e-05, Final residual = 4.78606e-05, No Iterations 0
time step continuity errors : sum local = 5.53252e-11, global = 1.10713e-12, cumulative = 2.23242e-10
PIMPLE: iteration 2
DILUPBiCGStab:  Solving for Ux, Initial residual = 4.25607e-08, Final residual = 4.25607e-08, No Iterations 0
DILUPBiCGStab:  Solving for Uy, Initial residual = 2.33238e-08, Final residual = 2.33238e-08, No Iterations 0
DILUPBiCGStab:  Solving for Uz, Initial residual = 6.68004e-08, Final residual = 6.68004e-08, No Iterations 0
GAMG:  Solving for p, Initial residual = 4.80386e-05, Final residual = 4.80386e-05, No Iterations 0
GAMG:  Solving for p, Initial residual = 4.80386e-05, Final residual = 4.80386e-05, No Iterations 0
GAMG:  Solving for p, Initial residual = 4.80386e-05, Final residual = 4.80386e-05, No Iterations 0
time step continuity errors : sum local = 5.5531e-11, global = 1.10405e-12, cumulative = 2.24346e-10
GAMG:  Solving for p, Initial residual = 4.80386e-05, Final residual = 4.80386e-05, No Iterations 0
GAMG:  Solving for p, Initial residual = 4.80386e-05, Final residual = 4.80386e-05, No Iterations 0
GAMG:  Solving for p, Initial residual = 4.80386e-05, Final residual = 4.80386e-05, No Iterations 0
time step continuity errors : sum local = 5.5531e-11, global = 1.10405e-12, cumulative = 2.2545e-10
GAMG:  Solving for p, Initial residual = 4.80386e-05, Final residual = 4.80386e-05, No Iterations 0
GAMG:  Solving for p, Initial residual = 4.80386e-05, Final residual = 4.80386e-05, No Iterations 0
GAMG:  Solving for p, Initial residual = 4.80386e-05, Final residual = 4.80386e-05, No Iterations 0
time step continuity errors : sum local = 5.5531e-11, global = 1.10405e-12, cumulative = 2.26554e-10
PIMPLE: iteration 3
DILUPBiCGStab:  Solving for Ux, Initial residual = 3.79409e-12, Final residual = 3.79409e-12, No Iterations 0
DILUPBiCGStab:  Solving for Uy, Initial residual = 2.69987e-12, Final residual = 2.69987e-12, No Iterations 0
DILUPBiCGStab:  Solving for Uz, Initial residual = 4.54787e-12, Final residual = 4.54787e-12, No Iterations 0
GAMG:  Solving for p, Initial residual = 4.80386e-05, Final residual = 4.80386e-05, No Iterations 0
GAMG:  Solving for p, Initial residual = 4.80386e-05, Final residual = 4.80386e-05, No Iterations 0
GAMG:  Solving for p, Initial residual = 4.80386e-05, Final residual = 4.80386e-05, No Iterations 0
time step continuity errors : sum local = 5.5531e-11, global = 1.10405e-12, cumulative = 2.27658e-10
GAMG:  Solving for p, Initial residual = 4.80386e-05, Final residual = 4.80386e-05, No Iterations 0
GAMG:  Solving for p, Initial residual = 4.80386e-05, Final residual = 4.80386e-05, No Iterations 0
GAMG:  Solving for p, Initial residual = 4.80386e-05, Final residual = 4.80386e-05, No Iterations 0
time step continuity errors : sum local = 5.5531e-11, global = 1.10405e-12, cumulative = 2.28762e-10
GAMG:  Solving for p, Initial residual = 4.80386e-05, Final residual = 4.80386e-05, No Iterations 0
GAMG:  Solving for p, Initial residual = 4.80386e-05, Final residual = 4.80386e-05, No Iterations 0
GAMG:  Solving for p, Initial residual = 4.80386e-05, Final residual = 4.80386e-05, No Iterations 0
time step continuity errors : sum local = 5.5531e-11, global = 1.10405e-12, cumulative = 2.29866e-10
PIMPLE: converged in 3 iterations
ExecutionTime = 4.05 s  ClockTime = 6 s

scalarTransport execute: s
smoothSolver:  Solving for s, Initial residual = 0.0298842, Final residual = 3.31455e-12, No Iterations 1

scalarTransport execute: s
smoothSolver:  Solving for s, Initial residual = 0.00172305, Final residual = 1.90326e-12, No Iterations 1

 Averages of s :  auto2 = -4.14932e-263
surfaceFieldValue surfaceFieldValue1 write:
    areaAverage(auto2) of s = -4.14932e-263

 Averages of U :  auto1 = (0 0.0101401 0)  auto2 = (6.99844e-08 0.0101293 -2.56414e-07)
Courant Number mean: 5.28191e-05 max: 0.000329339
deltaT = 1.53938e-05
Time = 8.63879e-05

PIMPLE: iteration 1
DILUPBiCGStab:  Solving for Ux, Initial residual = 0.00235613, Final residual = 8.01378e-12, No Iterations 1
DILUPBiCGStab:  Solving for Uy, Initial residual = 0.00314212, Final residual = 4.82912e-12, No Iterations 1
DILUPBiCGStab:  Solving for Uz, Initial residual = 0.00315332, Final residual = 8.47289e-12, No Iterations 1
GAMG:  Solving for p, Initial residual = 0.0907079, Final residual = 0.000277359, No Iterations 2
GAMG:  Solving for p, Initial residual = 0.0143696, Final residual = 4.4298e-05, No Iterations 3
GAMG:  Solving for p, Initial residual = 0.00369558, Final residual = 7.17109e-05, No Iterations 1
time step continuity errors : sum local = 9.87454e-11, global = 1.49403e-11, cumulative = 2.44806e-10
GAMG:  Solving for p, Initial residual = 0.000478033, Final residual = 4.37104e-05, No Iterations 1
GAMG:  Solving for p, Initial residual = 0.000483673, Final residual = 1.81551e-05, No Iterations 1
GAMG:  Solving for p, Initial residual = 0.000158904, Final residual = 1.23836e-05, No Iterations 1
time step continuity errors : sum local = 1.70424e-11, global = 9.83749e-13, cumulative = 2.4579e-10
GAMG:  Solving for p, Initial residual = 0.000117583, Final residual = 5.37449e-06, No Iterations 1
GAMG:  Solving for p, Initial residual = 4.44657e-05, Final residual = 4.44657e-05, No Iterations 0
GAMG:  Solving for p, Initial residual = 4.44657e-05, Final residual = 4.44657e-05, No Iterations 0
time step continuity errors : sum local = 6.11644e-11, global = 1.22543e-12, cumulative = 2.47015e-10
PIMPLE: iteration 2
DILUPBiCGStab:  Solving for Ux, Initial residual = 4.9817e-08, Final residual = 4.9817e-08, No Iterations 0
DILUPBiCGStab:  Solving for Uy, Initial residual = 2.78283e-08, Final residual = 2.78283e-08, No Iterations 0
DILUPBiCGStab:  Solving for Uz, Initial residual = 8.1429e-08, Final residual = 8.1429e-08, No Iterations 0
[...]
GAMG:  Solving for p, Initial residual = 4.93964e-05, Final residual = 4.93964e-05, No Iterations 0
time step continuity errors : sum local = 2.07425e-06, global = -2.68444e-08, cumulative = -2.26674e-06
GAMG:  Solving for p, Initial residual = 4.93987e-05, Final residual = 4.93987e-05, No Iterations 0
GAMG:  Solving for p, Initial residual = 4.93987e-05, Final residual = 4.93987e-05, No Iterations 0
GAMG:  Solving for p, Initial residual = 4.93987e-05, Final residual = 4.93987e-05, No Iterations 0
time step continuity errors : sum local = 2.07434e-06, global = -2.68416e-08, cumulative = -2.29358e-06
GAMG:  Solving for p, Initial residual = 4.93911e-05, Final residual = 4.93911e-05, No Iterations 0
GAMG:  Solving for p, Initial residual = 4.93911e-05, Final residual = 4.93911e-05, No Iterations 0
GAMG:  Solving for p, Initial residual = 4.93911e-05, Final residual = 4.93911e-05, No Iterations 0
time step continuity errors : sum local = 2.07403e-06, global = -2.68415e-08, cumulative = -2.32042e-06
PIMPLE: iteration 5
DILUPBiCGStab:  Solving for Ux, Initial residual = 5.50222e-07, Final residual = 5.50222e-07, No Iterations 0
DILUPBiCGStab:  Solving for Uy, Initial residual = 3.54603e-07, Final residual = 3.54603e-07, No Iterations 0
DILUPBiCGStab:  Solving for Uz, Initial residual = 7.43489e-07, Final residual = 7.43489e-07, No Iterations 0
GAMG:  Solving for p, Initial residual = 4.96485e-05, Final residual = 4.96485e-05, No Iterations 0
GAMG:  Solving for p, Initial residual = 4.96485e-05, Final residual = 4.96485e-05, No Iterations 0
GAMG:  Solving for p, Initial residual = 4.96485e-05, Final residual = 4.96485e-05, No Iterations 0
time step continuity errors : sum local = 2.08484e-06, global = -2.68385e-08, cumulative = -2.34726e-06
GAMG:  Solving for p, Initial residual = 4.96266e-05, Final residual = 4.96266e-05, No Iterations 0
GAMG:  Solving for p, Initial residual = 4.96266e-05, Final residual = 4.96266e-05, No Iterations 0
GAMG:  Solving for p, Initial residual = 4.96266e-05, Final residual = 4.96266e-05, No Iterations 0
time step continuity errors : sum local = 2.08392e-06, global = -2.68381e-08, cumulative = -2.3741e-06
GAMG:  Solving for p, Initial residual = 4.96254e-05, Final residual = 4.96254e-05, No Iterations 0
GAMG:  Solving for p, Initial residual = 4.96254e-05, Final residual = 4.96254e-05, No Iterations 0
GAMG:  Solving for p, Initial residual = 4.96254e-05, Final residual = 4.96254e-05, No Iterations 0
time step continuity errors : sum local = 2.08387e-06, global = -2.68381e-08, cumulative = -2.40094e-06
PIMPLE: converged in 5 iterations
ExecutionTime = 52.26 s  ClockTime = 54 s

scalarTransport execute: s
smoothSolver:  Solving for s, Initial residual = 0.00306327, Final residual = 2.74368e-10, No Iterations 2

scalarTransport execute: s
smoothSolver:  Solving for s, Initial residual = 8.67801e-05, Final residual = 1.46988e-11, No Iterations 2

 Averages of s :  auto2 = -9.28158e-58
surfaceFieldValue surfaceFieldValue1 write:
    areaAverage(auto2) of s = -9.28158e-58

 Averages of U :  auto1 = (0 0.0294161 0)  auto2 = (-2.81673e-06 0.0294299 3.37734e-07)
Courant Number mean: 0.0579568 max: 0.280463
deltaT = 0.005
Time = 0.495

PIMPLE: iteration 1
DILUPBiCGStab:  Solving for Ux, Initial residual = 0.17174, Final residual = 0.000492853, No Iterations 1
DILUPBiCGStab:  Solving for Uy, Initial residual = 0.213028, Final residual = 0.000188007, No Iterations 1
DILUPBiCGStab:  Solving for Uz, Initial residual = 0.174728, Final residual = 0.000389437, No Iterations 1
GAMG:  Solving for p, Initial residual = 0.0247874, Final residual = 0.000127635, No Iterations 3
GAMG:  Solving for p, Initial residual = 0.0113407, Final residual = 3.94143e-05, No Iterations 3
GAMG:  Solving for p, Initial residual = 0.00277146, Final residual = 5.74809e-05, No Iterations 1
time step continuity errors : sum local = 2.59743e-06, global = 3.42638e-07, cumulative = -2.0583e-06
GAMG:  Solving for p, Initial residual = 0.000753005, Final residual = 4.81845e-05, No Iterations 1
GAMG:  Solving for p, Initial residual = 0.000322786, Final residual = 2.18797e-05, No Iterations 1
GAMG:  Solving for p, Initial residual = 0.000159106, Final residual = 1.08356e-05, No Iterations 1
time step continuity errors : sum local = 4.90528e-07, global = 3.15425e-08, cumulative = -2.02676e-06
GAMG:  Solving for p, Initial residual = 8.74037e-05, Final residual = 8.74037e-05, No Iterations 0
GAMG:  Solving for p, Initial residual = 8.74037e-05, Final residual = 8.74037e-05, No Iterations 0
GAMG:  Solving for p, Initial residual = 8.74037e-05, Final residual = 8.74037e-05, No Iterations 0
time step continuity errors : sum local = 3.95693e-06, global = 1.28702e-08, cumulative = -2.01389e-06
PIMPLE: iteration 2
DILUPBiCGStab:  Solving for Ux, Initial residual = 0.00374545, Final residual = 2.93566e-06, No Iterations 1
DILUPBiCGStab:  Solving for Uy, Initial residual = 0.00171243, Final residual = 1.85974e-06, No Iterations 1
DILUPBiCGStab:  Solving for Uz, Initial residual = 0.0058733, Final residual = 4.73718e-06, No Iterations 1
GAMG:  Solving for p, Initial residual = 0.00392123, Final residual = 3.05044e-05, No Iterations 2
GAMG:  Solving for p, Initial residual = 0.000925035, Final residual = 2.33351e-05, No Iterations 1
GAMG:  Solving for p, Initial residual = 0.000161452, Final residual = 1.45992e-05, No Iterations 1
time step continuity errors : sum local = 6.68325e-07, global = -2.7042e-08, cumulative = -2.04093e-06
GAMG:  Solving for p, Initial residual = 0.000206565, Final residual = 8.42714e-06, No Iterations 1
GAMG:  Solving for p, Initial residual = 5.11883e-05, Final residual = 5.11883e-05, No Iterations 0
GAMG:  Solving for p, Initial residual = 5.11883e-05, Final residual = 5.11883e-05, No Iterations 0
time step continuity errors : sum local = 2.34121e-06, global = -4.25975e-08, cumulative = -2.08353e-06
GAMG:  Solving for p, Initial residual = 5.25791e-05, Final residual = 5.25791e-05, No Iterations 0
GAMG:  Solving for p, Initial residual = 5.25791e-05, Final residual = 5.25791e-05, No Iterations 0
GAMG:  Solving for p, Initial residual = 5.25791e-05, Final residual = 5.25791e-05, No Iterations 0
time step continuity errors : sum local = 2.40483e-06, global = -4.2973e-08, cumulative = -2.1265e-06
PIMPLE: iteration 3
DILUPBiCGStab:  Solving for Ux, Initial residual = 0.000100962, Final residual = 1.01151e-07, No Iterations 1
DILUPBiCGStab:  Solving for Uy, Initial residual = 5.31689e-05, Final residual = 6.43761e-08, No Iterations 1
DILUPBiCGStab:  Solving for Uz, Initial residual = 0.000159118, Final residual = 1.68693e-07, No Iterations 1
GAMG:  Solving for p, Initial residual = 0.000143028, Final residual = 4.73464e-06, No Iterations 1
GAMG:  Solving for p, Initial residual = 3.27905e-05, Final residual = 3.27905e-05, No Iterations 0
GAMG:  Solving for p, Initial residual = 3.27905e-05, Final residual = 3.27905e-05, No Iterations 0
time step continuity errors : sum local = 1.49959e-06, global = -2.26643e-08, cumulative = -2.14917e-06
GAMG:  Solving for p, Initial residual = 3.34156e-05, Final residual = 3.34156e-05, No Iterations 0
GAMG:  Solving for p, Initial residual = 3.34156e-05, Final residual = 3.34156e-05, No Iterations 0
GAMG:  Solving for p, Initial residual = 3.34156e-05, Final residual = 3.34156e-05, No Iterations 0
time step continuity errors : sum local = 1.52818e-06, global = -2.17806e-08, cumulative = -2.17095e-06
GAMG:  Solving for p, Initial residual = 3.34305e-05, Final residual = 3.34305e-05, No Iterations 0
GAMG:  Solving for p, Initial residual = 3.34305e-05, Final residual = 3.34305e-05, No Iterations 0
GAMG:  Solving for p, Initial residual = 3.34305e-05, Final residual = 3.34305e-05, No Iterations 0
time step continuity errors : sum local = 1.52886e-06, global = -2.17456e-08, cumulative = -2.19269e-06
PIMPLE: iteration 4
DILUPBiCGStab:  Solving for Ux, Initial residual = 4.47117e-06, Final residual = 4.47117e-06, No Iterations 0
DILUPBiCGStab:  Solving for Uy, Initial residual = 3.03286e-06, Final residual = 3.03286e-06, No Iterations 0
DILUPBiCGStab:  Solving for Uz, Initial residual = 6.36315e-06, Final residual = 6.36315e-06, No Iterations 0
GAMG:  Solving for p, Initial residual = 3.45531e-05, Final residual = 3.45531e-05, No Iterations 0
GAMG:  Solving for p, Initial residual = 3.45531e-05, Final residual = 3.45531e-05, No Iterations 0
GAMG:  Solving for p, Initial residual = 3.45531e-05, Final residual = 3.45531e-05, No Iterations 0
time step continuity errors : sum local = 1.58019e-06, global = -2.18013e-08, cumulative = -2.21449e-06
GAMG:  Solving for p, Initial residual = 3.45285e-05, Final residual = 3.45285e-05, No Iterations 0
GAMG:  Solving for p, Initial residual = 3.45285e-05, Final residual = 3.45285e-05, No Iterations 0
GAMG:  Solving for p, Initial residual = 3.45285e-05, Final residual = 3.45285e-05, No Iterations 0
time step continuity errors : sum local = 1.57907e-06, global = -2.18011e-08, cumulative = -2.23629e-06
GAMG:  Solving for p, Initial residual = 3.45254e-05, Final residual = 3.45254e-05, No Iterations 0
GAMG:  Solving for p, Initial residual = 3.45254e-05, Final residual = 3.45254e-05, No Iterations 0
GAMG:  Solving for p, Initial residual = 3.45254e-05, Final residual = 3.45254e-05, No Iterations 0
time step continuity errors : sum local = 1.57893e-06, global = -2.1801e-08, cumulative = -2.25809e-06
PIMPLE: iteration 5
DILUPBiCGStab:  Solving for Ux, Initial residual = 3.6426e-07, Final residual = 3.6426e-07, No Iterations 0
DILUPBiCGStab:  Solving for Uy, Initial residual = 2.53166e-07, Final residual = 2.53166e-07, No Iterations 0
DILUPBiCGStab:  Solving for Uz, Initial residual = 4.58118e-07, Final residual = 4.58118e-07, No Iterations 0
GAMG:  Solving for p, Initial residual = 3.45997e-05, Final residual = 3.45997e-05, No Iterations 0
GAMG:  Solving for p, Initial residual = 3.45997e-05, Final residual = 3.45997e-05, No Iterations 0
GAMG:  Solving for p, Initial residual = 3.45997e-05, Final residual = 3.45997e-05, No Iterations 0
time step continuity errors : sum local = 1.58233e-06, global = -2.18001e-08, cumulative = -2.27989e-06
GAMG:  Solving for p, Initial residual = 3.45908e-05, Final residual = 3.45908e-05, No Iterations 0
GAMG:  Solving for p, Initial residual = 3.45908e-05, Final residual = 3.45908e-05, No Iterations 0
GAMG:  Solving for p, Initial residual = 3.45908e-05, Final residual = 3.45908e-05, No Iterations 0
time step continuity errors : sum local = 1.58192e-06, global = -2.18e-08, cumulative = -2.30169e-06
GAMG:  Solving for p, Initial residual = 3.45907e-05, Final residual = 3.45907e-05, No Iterations 0
GAMG:  Solving for p, Initial residual = 3.45907e-05, Final residual = 3.45907e-05, No Iterations 0
GAMG:  Solving for p, Initial residual = 3.45907e-05, Final residual = 3.45907e-05, No Iterations 0
time step continuity errors : sum local = 1.58191e-06, global = -2.18e-08, cumulative = -2.32349e-06
PIMPLE: converged in 5 iterations
ExecutionTime = 52.68 s  ClockTime = 55 s

scalarTransport execute: s
smoothSolver:  Solving for s, Initial residual = 0.00203991, Final residual = 8.88431e-11, No Iterations 2

scalarTransport execute: s
smoothSolver:  Solving for s, Initial residual = 6.11143e-05, Final residual = 4.75674e-12, No Iterations 2

 Averages of s :  auto2 = -1.73041e-57
surfaceFieldValue surfaceFieldValue1 write:
    areaAverage(auto2) of s = -1.73041e-57

 Averages of U :  auto1 = (0 0.0198291 0)  auto2 = (-2.77001e-06 0.0198529 7.32043e-07)
Courant Number mean: 0.0417881 max: 0.194203
deltaT = 0.005
Time = 0.5

PIMPLE: iteration 1
DILUPBiCGStab:  Solving for Ux, Initial residual = 0.237963, Final residual = 0.000345477, No Iterations 1
DILUPBiCGStab:  Solving for Uy, Initial residual = 0.32755, Final residual = 0.000154273, No Iterations 1
DILUPBiCGStab:  Solving for Uz, Initial residual = 0.209007, Final residual = 0.000238026, No Iterations 1
GAMG:  Solving for p, Initial residual = 0.0311852, Final residual = 0.000109712, No Iterations 3
GAMG:  Solving for p, Initial residual = 0.00865538, Final residual = 9.77356e-05, No Iterations 2
GAMG:  Solving for p, Initial residual = 0.00201666, Final residual = 4.3299e-05, No Iterations 1
time step continuity errors : sum local = 2.08736e-06, global = 4.36859e-07, cumulative = -1.88664e-06
GAMG:  Solving for p, Initial residual = 0.000633647, Final residual = 2.70024e-05, No Iterations 1
GAMG:  Solving for p, Initial residual = 0.000218908, Final residual = 1.31163e-05, No Iterations 1
GAMG:  Solving for p, Initial residual = 0.000130824, Final residual = 6.14979e-06, No Iterations 1
time step continuity errors : sum local = 2.97312e-07, global = 4.76185e-08, cumulative = -1.83902e-06
GAMG:  Solving for p, Initial residual = 6.33618e-05, Final residual = 6.33618e-05, No Iterations 0
GAMG:  Solving for p, Initial residual = 6.33618e-05, Final residual = 6.33618e-05, No Iterations 0
GAMG:  Solving for p, Initial residual = 6.33618e-05, Final residual = 6.33618e-05, No Iterations 0
time step continuity errors : sum local = 3.06432e-06, global = 3.00005e-08, cumulative = -1.80902e-06
PIMPLE: iteration 2
DILUPBiCGStab:  Solving for Ux, Initial residual = 0.00574227, Final residual = 2.15803e-06, No Iterations 1
DILUPBiCGStab:  Solving for Uy, Initial residual = 0.00288411, Final residual = 1.37812e-06, No Iterations 1
DILUPBiCGStab:  Solving for Uz, Initial residual = 0.00774223, Final residual = 2.89474e-06, No Iterations 1
GAMG:  Solving for p, Initial residual = 0.00427111, Final residual = 2.47419e-05, No Iterations 2
GAMG:  Solving for p, Initial residual = 0.000777094, Final residual = 1.92955e-05, No Iterations 1
GAMG:  Solving for p, Initial residual = 0.000142052, Final residual = 1.16943e-05, No Iterations 1
time step continuity errors : sum local = 5.72191e-07, global = -2.46617e-08, cumulative = -1.83368e-06
GAMG:  Solving for p, Initial residual = 0.000167059, Final residual = 5.27052e-06, No Iterations 1
GAMG:  Solving for p, Initial residual = 4.03231e-05, Final residual = 4.03231e-05, No Iterations 0
GAMG:  Solving for p, Initial residual = 4.03231e-05, Final residual = 4.03231e-05, No Iterations 0
time step continuity errors : sum local = 1.97147e-06, global = -3.73449e-08, cumulative = -1.87102e-06
GAMG:  Solving for p, Initial residual = 4.09361e-05, Final residual = 4.09361e-05, No Iterations 0
GAMG:  Solving for p, Initial residual = 4.09361e-05, Final residual = 4.09361e-05, No Iterations 0
GAMG:  Solving for p, Initial residual = 4.09361e-05, Final residual = 4.09361e-05, No Iterations 0
time step continuity errors : sum local = 2.00144e-06, global = -3.75079e-08, cumulative = -1.90853e-06
PIMPLE: iteration 3
DILUPBiCGStab:  Solving for Ux, Initial residual = 0.000150368, Final residual = 7.35112e-08, No Iterations 1
DILUPBiCGStab:  Solving for Uy, Initial residual = 7.58465e-05, Final residual = 4.16821e-08, No Iterations 1
DILUPBiCGStab:  Solving for Uz, Initial residual = 0.00019122, Final residual = 8.17716e-08, No Iterations 1
GAMG:  Solving for p, Initial residual = 0.000142709, Final residual = 3.48576e-06, No Iterations 1
GAMG:  Solving for p, Initial residual = 2.5699e-05, Final residual = 2.5699e-05, No Iterations 0
GAMG:  Solving for p, Initial residual = 2.5699e-05, Final residual = 2.5699e-05, No Iterations 0
time step continuity errors : sum local = 1.25639e-06, global = -2.10724e-08, cumulative = -1.9296e-06
GAMG:  Solving for p, Initial residual = 2.6198e-05, Final residual = 2.6198e-05, No Iterations 0
GAMG:  Solving for p, Initial residual = 2.6198e-05, Final residual = 2.6198e-05, No Iterations 0
GAMG:  Solving for p, Initial residual = 2.6198e-05, Final residual = 2.6198e-05, No Iterations 0
time step continuity errors : sum local = 1.28078e-06, global = -2.05996e-08, cumulative = -1.9502e-06
GAMG:  Solving for p, Initial residual = 2.62022e-05, Final residual = 2.62022e-05, No Iterations 0
GAMG:  Solving for p, Initial residual = 2.62022e-05, Final residual = 2.62022e-05, No Iterations 0
GAMG:  Solving for p, Initial residual = 2.62022e-05, Final residual = 2.62022e-05, No Iterations 0
time step continuity errors : sum local = 1.28098e-06, global = -2.05871e-08, cumulative = -1.97079e-06
PIMPLE: iteration 4
DILUPBiCGStab:  Solving for Ux, Initial residual = 5.35024e-06, Final residual = 5.35024e-06, No Iterations 0
DILUPBiCGStab:  Solving for Uy, Initial residual = 3.42234e-06, Final residual = 3.42234e-06, No Iterations 0
DILUPBiCGStab:  Solving for Uz, Initial residual = 6.14647e-06, Final residual = 6.14647e-06, No Iterations 0
GAMG:  Solving for p, Initial residual = 2.76978e-05, Final residual = 2.76978e-05, No Iterations 0
GAMG:  Solving for p, Initial residual = 2.76978e-05, Final residual = 2.76978e-05, No Iterations 0
GAMG:  Solving for p, Initial residual = 2.76978e-05, Final residual = 2.76978e-05, No Iterations 0
time step continuity errors : sum local = 1.3541e-06, global = -2.06054e-08, cumulative = -1.9914e-06
GAMG:  Solving for p, Initial residual = 2.76538e-05, Final residual = 2.76538e-05, No Iterations 0
GAMG:  Solving for p, Initial residual = 2.76538e-05, Final residual = 2.76538e-05, No Iterations 0
GAMG:  Solving for p, Initial residual = 2.76538e-05, Final residual = 2.76538e-05, No Iterations 0
time step continuity errors : sum local = 1.35195e-06, global = -2.06057e-08, cumulative = -2.012e-06
GAMG:  Solving for p, Initial residual = 2.76539e-05, Final residual = 2.76539e-05, No Iterations 0
GAMG:  Solving for p, Initial residual = 2.76539e-05, Final residual = 2.76539e-05, No Iterations 0
GAMG:  Solving for p, Initial residual = 2.76539e-05, Final residual = 2.76539e-05, No Iterations 0
time step continuity errors : sum local = 1.35195e-06, global = -2.06058e-08, cumulative = -2.03261e-06
PIMPLE: iteration 5
DILUPBiCGStab:  Solving for Ux, Initial residual = 3.74168e-07, Final residual = 3.74168e-07, No Iterations 0
DILUPBiCGStab:  Solving for Uy, Initial residual = 2.31141e-07, Final residual = 2.31141e-07, No Iterations 0
DILUPBiCGStab:  Solving for Uz, Initial residual = 3.79301e-07, Final residual = 3.79301e-07, No Iterations 0
GAMG:  Solving for p, Initial residual = 2.76661e-05, Final residual = 2.76661e-05, No Iterations 0
GAMG:  Solving for p, Initial residual = 2.76661e-05, Final residual = 2.76661e-05, No Iterations 0
GAMG:  Solving for p, Initial residual = 2.76661e-05, Final residual = 2.76661e-05, No Iterations 0
time step continuity errors : sum local = 1.35255e-06, global = -2.06056e-08, cumulative = -2.05321e-06
GAMG:  Solving for p, Initial residual = 2.7662e-05, Final residual = 2.7662e-05, No Iterations 0
GAMG:  Solving for p, Initial residual = 2.7662e-05, Final residual = 2.7662e-05, No Iterations 0
GAMG:  Solving for p, Initial residual = 2.7662e-05, Final residual = 2.7662e-05, No Iterations 0
time step continuity errors : sum local = 1.35235e-06, global = -2.06056e-08, cumulative = -2.07382e-06
GAMG:  Solving for p, Initial residual = 2.76621e-05, Final residual = 2.76621e-05, No Iterations 0
GAMG:  Solving for p, Initial residual = 2.76621e-05, Final residual = 2.76621e-05, No Iterations 0
GAMG:  Solving for p, Initial residual = 2.76621e-05, Final residual = 2.76621e-05, No Iterations 0
time step continuity errors : sum local = 1.35236e-06, global = -2.06056e-08, cumulative = -2.09442e-06
PIMPLE: converged in 5 iterations
ExecutionTime = 53.13 s  ClockTime = 55 s

scalarTransport execute: s
smoothSolver:  Solving for s, Initial residual = 0.00105345, Final residual = 1.70331e-11, No Iterations 2

scalarTransport execute: s
smoothSolver:  Solving for s, Initial residual = 4.80038e-05, Final residual = 6.65858e-09, No Iterations 1

 Averages of s :  auto2 = -2.29712e-57
surfaceFieldValue surfaceFieldValue1 write:
    areaAverage(auto2) of s = -2.29712e-57

 Averages of U :  auto1 = (0 0.01 0)  auto2 = (-2.63303e-06 0.0100284 1.03385e-06)
End

